demos/models/sfo_p1udt1469/Main_with_profile.dss
Clear
New Circuit.feeder_p1udt1469-p1uhs0_1247x

Redirect Vsource.dss
Redirect LineCode.dss
Redirect Branches.dss
Redirect Transformers.dss
Redirect Loads.dss
Redirect Capacitors.dss
Redirect EnergyMeter.dss
Redirect BusVoltageBases.dss  ! set voltage bases
Buscoords BusCoords.dss

new loadshape.duty_shape npts=35040 interval=0.25 mult=(file=pu_substation_demand.csv)
BatchEdit Load..* duty=duty_shape