demos/models/sfo_p1udt1469/LineCode.dss
New "LineCode.1p_ug_al_1/0_brenau_2" units=km nphases=2 faultrate=0.1 rmatrix=[  0.91490000   0.37440000 |  0.37440000   0.91490000 ] xmatrix=[  0.49726670   0.39696670 |  0.39696670   0.49726670 ] cmatrix=[ 36.49980000 -16.31310000 |-16.31310000  36.49980000 ] normamps=205
New "LineCode.1p_ug_al_4/0_sweetbriar_2" units=km nphases=2 faultrate=0.1 rmatrix=[  0.54623330   0.27553330 |  0.27553330   0.54623330 ] xmatrix=[  0.29760000   0.20430000 |  0.20430000   0.29760000 ] cmatrix=[ 39.32780000 -18.60460000 |-18.60460000  39.32780000 ] normamps=301
New "LineCode.1p_ug_al_2/0_converse_2" units=km nphases=2 faultrate=0.1 rmatrix=[  0.77933330   0.35033330 |  0.35033330   0.77933330 ] xmatrix=[  0.42093330   0.32313330 |  0.32313330   0.42093330 ] cmatrix=[ 37.42527000 -17.11183000 |-17.11183000  37.42527000 ] normamps=233
New "LineCode.1p_oh_al_2/0_rucina_2" units=km nphases=2 faultrate=0.1 rmatrix=[  0.71663333   0.28753333 |  0.28753333   0.71663333 ] xmatrix=[  0.28883333   0.19323333 |  0.19323333   0.28883333 ] cmatrix=[ 39.35950000 -19.34210000 |-19.34210000  39.35950000 ] normamps=115
New "LineCode.1p_oh_al_4/0_zuzara_2" units=km nphases=2 faultrate=0.1 rmatrix=[  0.47280000   0.20210000 |  0.20210000   0.47280000 ] xmatrix=[  0.21353333   0.12473333 |  0.12473333   0.21353333 ] cmatrix=[ 41.35780000 -20.44740000 |-20.44740000  41.35780000 ] normamps=115
New "LineCode.1p_ug_al_4/0_sweetbriar_2_1" units=km nphases=2 faultrate=0.1 rmatrix=[  0.54623330   0.27553330 |  0.27553330   0.54623330 ] xmatrix=[  0.29760000   0.20430000 |  0.20430000   0.29760000 ] cmatrix=[ 39.32780000 -18.60460000 |-18.60460000  39.32780000 ] normamps=445
New "LineCode.1p_oh_al_4_periwinkle_2" units=km nphases=2 faultrate=0.1 rmatrix=[  1.76096667   0.39596667 |  0.39596667   1.76096667 ] xmatrix=[  0.66983333   0.56863333 |  0.56863333   0.66983333 ] cmatrix=[ 36.92503333 -17.55896667 |-17.55896667  36.92503333 ] normamps=115
New "LineCode.1p_oh_al_acsr_#2_sparrow_1" units=km nphases=1 faultrate=0.1 rmatrix=[  1.04120000 ] xmatrix=[  0.76270000 ] cmatrix=[  7.69673000 ] normamps=165
New "LineCode.1p_ug_al_1" units=km nphases=1 faultrate=0.1 rmatrix=[  0.91770000 ] xmatrix=[  0.95470000 ] cmatrix=[158.49200000 ] normamps=151
New "LineCode.3p_ug_al_3" units=km nphases=3 faultrate=0.1 rmatrix=[  0.32893330   0.05923333   0.05923333 |  0.05923333   0.32893330   0.05923333 |  0.05923333   0.05923333   0.32893330 ] xmatrix=[  0.90760000   0.66470000   0.66470000 |  0.66470000   0.90760000   0.66470000 |  0.66470000   0.66470000   0.90760000 ] cmatrix=[120.28900000 -59.02600000 -59.02600000 |-59.02600000 120.28900000 -59.02600000 |-59.02600000 -59.02600000 120.28900000 ] normamps=295
New "LineCode.3p_ug_al_350kcmil_3" units=km nphases=3 faultrate=0.1 rmatrix=[  0.22280000   0.05920000   0.05920000 |  0.05920000   0.22280000   0.05920000 |  0.05920000   0.05920000   0.22280000 ] xmatrix=[  0.88760000   0.66470000   0.66470000 |  0.66470000   0.88760000   0.66470000 |  0.66470000   0.66470000   0.88760000 ] cmatrix=[172.52030000 -85.15167000 -85.15167000 |-85.15167000 172.52030000 -85.15167000 |-85.15167000 -85.15167000 172.52030000 ] normamps=370
New "LineCode.3p_oh_al_acsr_4/0_penguin_3" units=km nphases=3 faultrate=0.1 rmatrix=[  0.36356670   0.09006667   0.09006667 |  0.09006667   0.36356670   0.09006667 |  0.09006667   0.09006667   0.36356670 ] xmatrix=[  0.63853330   0.22023330   0.22023330 |  0.22023330   0.63853330   0.22023330 |  0.22023330   0.22023330   0.63853330 ] cmatrix=[  7.44826700  -3.18463300  -3.18463300 | -3.18463300   7.44826700  -3.18463300 | -3.18463300  -3.18463300   7.44826700 ] normamps=325
New "LineCode.3p_ug_al_750kcmil_3_1" units=km nphases=3 faultrate=0.1 rmatrix=[  0.22961330   0.15124330   0.15124330 |  0.15124330   0.22961330   0.15124330 |  0.15124330   0.15124330   0.22961330 ] xmatrix=[  0.54000000   0.29550000   0.29550000 |  0.29550000   0.54000000   0.29550000 |  0.29550000   0.29550000   0.54000000 ] cmatrix=[169.55900000 -84.21400000 -84.21400000 |-84.21400000 169.55900000 -84.21400000 |-84.21400000 -84.21400000 169.55900000 ] normamps=550
New "LineCode.3p_ug_al_350kcmil_3_2" units=km nphases=3 faultrate=0.1 rmatrix=[  0.33886670   0.17446670   0.17446670 |  0.17446670   0.33886670   0.17446670 |  0.17446670   0.17446670   0.33886670 ] xmatrix=[  0.51260000   0.29120000   0.29120000 |  0.29120000   0.51260000   0.29120000 |  0.29120000   0.29120000   0.51260000 ] cmatrix=[164.36500000 -81.63500000 -81.63500000 |-81.63500000 164.36500000 -81.63500000 |-81.63500000 -81.63500000 164.36500000 ] normamps=370
New "LineCode.3p_oh_al_acsr_1033kcmil_curlew_3" units=km nphases=3 faultrate=0.1 rmatrix=[  0.08710000   0.02960000   0.02960000 |  0.02960000   0.08710000   0.02960000 |  0.02960000   0.02960000   0.08710000 ] xmatrix=[  0.53823330   0.18393330   0.18393330 |  0.18393330   0.53823330   0.18393330 |  0.18393330   0.18393330   0.53823330 ] cmatrix=[  8.67450000  -3.88420000  -3.88420000 | -3.88420000   8.67450000  -3.88420000 | -3.88420000  -3.88420000   8.67450000 ] normamps=960
New "LineCode.padswitch_1" units=km nphases=1 faultrate=0.1 rmatrix=[  0.00100000 ] xmatrix=[  0.00100000 ] cmatrix=[  3.60892400 ] normamps=151
New "LineCode.padswitch_1_2" units=km nphases=1 faultrate=0.1 rmatrix=[  0.00100000 ] xmatrix=[  0.00100000 ] cmatrix=[  3.60892400 ] normamps=205
New "LineCode.padswitch_1_1" units=km nphases=1 faultrate=0.1 rmatrix=[  0.00100000 ] xmatrix=[  0.00100000 ] cmatrix=[  3.60892400 ] normamps=233
New "LineCode.padswitch_1_3" units=km nphases=1 faultrate=0.1 rmatrix=[  0.00100000 ] xmatrix=[  0.00100000 ] cmatrix=[  3.60892400 ] normamps=301
New "LineCode.padswitch_1_4" units=km nphases=1 faultrate=0.1 rmatrix=[  0.00100000 ] xmatrix=[  0.00100000 ] cmatrix=[  3.60892400 ] normamps=165
New "LineCode.padswitch_3" units=km nphases=3 faultrate=0.1 rmatrix=[  0.00100000   0.00000000   0.00000000 |  0.00000000   0.00100000   0.00000000 |  0.00000000   0.00000000   0.00100000 ] xmatrix=[  0.00100000   0.00000000   0.00000000 |  0.00000000   0.00100000   0.00000000 |  0.00000000   0.00000000   0.00100000 ] cmatrix=[  3.49956300  -0.10936130  -0.10936130 | -0.10936130   3.49956300  -0.10936130 | -0.10936130  -0.10936130   3.49956300 ] normamps=295
New "LineCode.padswitch_3_1" units=km nphases=3 faultrate=0.1 rmatrix=[  0.00100000   0.00000000   0.00000000 |  0.00000000   0.00100000   0.00000000 |  0.00000000   0.00000000   0.00100000 ] xmatrix=[  0.00100000   0.00000000   0.00000000 |  0.00000000   0.00100000   0.00000000 |  0.00000000   0.00000000   0.00100000 ] cmatrix=[  3.49956300  -0.10936130  -0.10936130 | -0.10936130   3.49956300  -0.10936130 | -0.10936130  -0.10936130   3.49956300 ] normamps=301
New "LineCode.padswitch_3_2" units=km nphases=3 faultrate=0.1 rmatrix=[  0.00100000   0.00000000   0.00000000 |  0.00000000   0.00100000   0.00000000 |  0.00000000   0.00000000   0.00100000 ] xmatrix=[  0.00100000   0.00000000   0.00000000 |  0.00000000   0.00100000   0.00000000 |  0.00000000   0.00000000   0.00100000 ] cmatrix=[  3.49956300  -0.10936130  -0.10936130 | -0.10936130   3.49956300  -0.10936130 | -0.10936130  -0.10936130   3.49956300 ] normamps=370
New "LineCode.padswitch_3_3" units=km nphases=3 faultrate=0.1 rmatrix=[  0.00100000   0.00000000   0.00000000 |  0.00000000   0.00100000   0.00000000 |  0.00000000   0.00000000   0.00100000 ] xmatrix=[  0.00100000   0.00000000   0.00000000 |  0.00000000   0.00100000   0.00000000 |  0.00000000   0.00000000   0.00100000 ] cmatrix=[  3.49956300  -0.10936130  -0.10936130 | -0.10936130   3.49956300  -0.10936130 | -0.10936130  -0.10936130   3.49956300 ] normamps=325
New "LineCode.padswitch_3_12" units=km nphases=3 faultrate=0.1 rmatrix=[  0.00100000   0.00000000   0.00000000 |  0.00000000   0.00100000   0.00000000 |  0.00000000   0.00000000   0.00100000 ] xmatrix=[  0.00100000   0.00000000   0.00000000 |  0.00000000   0.00100000   0.00000000 |  0.00000000   0.00000000   0.00100000 ] cmatrix=[  3.49956300  -0.10936130  -0.10936130 | -0.10936130   3.49956300  -0.10936130 | -0.10936130  -0.10936130   3.49956300 ] normamps=115
New "LineCode.padswitch_3_11" units=km nphases=3 faultrate=0.1 rmatrix=[  0.00100000   0.00000000   0.00000000 |  0.00000000   0.00100000   0.00000000 |  0.00000000   0.00000000   0.00100000 ] xmatrix=[  0.00100000   0.00000000   0.00000000 |  0.00000000   0.00100000   0.00000000 |  0.00000000   0.00000000   0.00100000 ] cmatrix=[  3.49956300  -0.10936130  -0.10936130 | -0.10936130   3.49956300  -0.10936130 | -0.10936130  -0.10936130   3.49956300 ] normamps=233
New "LineCode.padswitch_3_9" units=km nphases=3 faultrate=0.1 rmatrix=[  0.00100000   0.00000000   0.00000000 |  0.00000000   0.00100000   0.00000000 |  0.00000000   0.00000000   0.00100000 ] xmatrix=[  0.00100000   0.00000000   0.00000000 |  0.00000000   0.00100000   0.00000000 |  0.00000000   0.00000000   0.00100000 ] cmatrix=[  3.49956300  -0.10936130  -0.10936130 | -0.10936130   3.49956300  -0.10936130 | -0.10936130  -0.10936130   3.49956300 ] normamps=205
New "LineCode.padswitch_3_8" units=km nphases=3 faultrate=0.1 rmatrix=[  0.00100000   0.00000000   0.00000000 |  0.00000000   0.00100000   0.00000000 |  0.00000000   0.00000000   0.00100000 ] xmatrix=[  0.00100000   0.00000000   0.00000000 |  0.00000000   0.00100000   0.00000000 |  0.00000000   0.00000000   0.00100000 ] cmatrix=[  3.49956300  -0.10936130  -0.10936130 | -0.10936130   3.49956300  -0.10936130 | -0.10936130  -0.10936130   3.49956300 ] normamps=285
New "LineCode.padswitch_3_10" units=km nphases=3 faultrate=0.1 rmatrix=[  0.00100000   0.00000000   0.00000000 |  0.00000000   0.00100000   0.00000000 |  0.00000000   0.00000000   0.00100000 ] xmatrix=[  0.00100000   0.00000000   0.00000000 |  0.00000000   0.00100000   0.00000000 |  0.00000000   0.00000000   0.00100000 ] cmatrix=[  3.49956300  -0.10936130  -0.10936130 | -0.10936130   3.49956300  -0.10936130 | -0.10936130  -0.10936130   3.49956300 ] normamps=151
New "LineCode.fuse_1_2" units=km nphases=1 faultrate=0.1 rmatrix=[  0.00100000 ] xmatrix=[  0.00100000 ] cmatrix=[  3.40000000 ] normamps=370
New "LineCode.fuse_1" units=km nphases=1 faultrate=0.1 rmatrix=[  0.00100000 ] xmatrix=[  0.00100000 ] cmatrix=[  3.40000000 ] normamps=325
New "LineCode.fuse_1_3" units=km nphases=1 faultrate=0.1 rmatrix=[  0.00100000 ] xmatrix=[  0.00100000 ] cmatrix=[  3.40000000 ] normamps=165
New "LineCode.fuse_1_5" units=km nphases=1 faultrate=0.1 rmatrix=[  0.00100000 ] xmatrix=[  0.00100000 ] cmatrix=[  3.40000000 ] normamps=151
New "LineCode.fuse_1_1" units=km nphases=1 faultrate=0.1 rmatrix=[  0.00100000 ] xmatrix=[  0.00100000 ] cmatrix=[  3.40000000 ] normamps=295
New "LineCode.goab_disswitch_3_1" units=km nphases=3 faultrate=0.1 rmatrix=[  0.00100000   0.00000000   0.00000000 |  0.00000000   0.00100000   0.00000000 |  0.00000000   0.00000000   0.00100000 ] xmatrix=[  0.00100000   0.00000000   0.00000000 |  0.00000000   0.00100000   0.00000000 |  0.00000000   0.00000000   0.00100000 ] cmatrix=[  3.49956300  -0.10936130  -0.10936130 | -0.10936130   3.49956300  -0.10936130 | -0.10936130  -0.10936130   3.49956300 ] normamps=325
New "LineCode.goab_disswitch_3_7" units=km nphases=3 faultrate=0.1 rmatrix=[  0.00100000   0.00000000   0.00000000 |  0.00000000   0.00100000   0.00000000 |  0.00000000   0.00000000   0.00100000 ] xmatrix=[  0.00100000   0.00000000   0.00000000 |  0.00000000   0.00100000   0.00000000 |  0.00000000   0.00000000   0.00100000 ] cmatrix=[  3.49956300  -0.10936130  -0.10936130 | -0.10936130   3.49956300  -0.10936130 | -0.10936130  -0.10936130   3.49956300 ] normamps=115
