demos/models/sfo_p1udt1469/Branches.dss
New "Line.l(r:p1udt1469-p1uhs0_1247)" units=km length=0.131874 bus1=p1udt1469-p1uhs0_1247x.1.2.3 bus2=p1udt1469.1.2.3 Switch=False enabled=true phases=3 linecode=3p_oh_al_acsr_4/0_penguin_3 Seasons=1 Ratings=[400,] normamps=325 emergamps=600
New "Line.l(r:p1udt1469lv-p1ulv7623)" units=km length=0.00461004 bus1=p1udt1469lv.1.2.3 bus2=p1ulv7623.1.2.3 Switch=False enabled=true phases=3 linecode=3p_ug_al_750kcmil_3_1 Seasons=1 Ratings=[400,] normamps=550 emergamps=600
New "Line.l(r:p1udt1469-p1udt940)" units=km length=0.186958 bus1=p1udt1469.1.2.3 bus2=p1udt940.1.2.3 Switch=False enabled=true phases=3 linecode=3p_oh_al_acsr_4/0_penguin_3 Seasons=1 Ratings=[400,] normamps=325 emergamps=600
New "Line.l(r:p1udt940lv-p1ulv4190)" units=km length=0.0171007 bus1=p1udt940lv.1.2 bus2=p1ulv4190.1.2 Switch=False enabled=true phases=2 linecode=1p_ug_al_1/0_brenau_2 Seasons=1 Ratings=[400,] normamps=205 emergamps=600
New "Line.padswitch(r:p1udt940-p1udt941)p1u_9557" units=none length=0.001 bus1=p1udt940.1.2.3 bus2=p1udt940-p1udt941x.1.2.3 Switch=True enabled=true phases=3 linecode=padswitch_3_3 Seasons=1 Ratings=[400,] normamps=325 emergamps=600
New "Line.l(r:p1udt940-p1udt941)" units=km length=0.0184145 bus1=p1udt940-p1udt941x.1.2.3 bus2=p1udt940-p1udt941xx.1.2.3 Switch=False enabled=true phases=3 linecode=3p_ug_al_350kcmil_3 Seasons=1 Ratings=[400,] normamps=370 emergamps=600
New "Line.padswitch(r:p1udt940-p1udt941)p1u_9558" units=none length=0.001 bus1=p1udt940-p1udt941xx.1.2.3 bus2=p1udt941.1.2.3 Switch=True enabled=true phases=3 linecode=padswitch_3_2 Seasons=1 Ratings=[400,] normamps=370 emergamps=600
New "Line.l(r:p1udt941lv-p1ulv4191)" units=km length=0.0096483 bus1=p1udt941lv.1.2.3 bus2=p1ulv4191.1.2.3 Switch=False enabled=true phases=3 linecode=3p_ug_al_350kcmil_3_2 Seasons=1 Ratings=[400,] normamps=370 emergamps=600
New "Line.padswitch(r:p1udt886-p1udt941)p1u_9555" units=none length=0.001 bus1=p1udt941.1.2.3 bus2=p1udt886-p1udt941xx.1.2.3 Switch=True enabled=true phases=3 linecode=padswitch_3_2 Seasons=1 Ratings=[400,] normamps=370 emergamps=600
New "Line.l(r:p1udt886-p1udt941)" units=km length=0.00921224 bus1=p1udt886-p1udt941xx.1.2.3 bus2=p1udt886-p1udt941x.1.2.3 Switch=False enabled=true phases=3 linecode=3p_ug_al_350kcmil_3 Seasons=1 Ratings=[400,] normamps=370 emergamps=600
New "Line.padswitch(r:p1udt886-p1udt941)p1u_9556" units=none length=0.001 bus1=p1udt886-p1udt941x.1.2.3 bus2=p1udt886.1.2.3 Switch=True enabled=true phases=3 linecode=padswitch_3_2 Seasons=1 Ratings=[400,] normamps=370 emergamps=600
New "Line.l(r:p1udt886lv-p1ulv4116)" units=km length=0.0161609 bus1=p1udt886lv.1.2 bus2=p1ulv4116.1.2 Switch=False enabled=true phases=2 linecode=1p_ug_al_4/0_sweetbriar_2 Seasons=1 Ratings=[400,] normamps=301 emergamps=600
New "Line.l(r:p1udm3863-p1udt886lv)" units=km length=0.00921224 bus1=p1udt886lv.1.2 bus2=p1udm3863.1.2 Switch=False enabled=true phases=2 linecode=1p_ug_al_1/0_brenau_2 Seasons=1 Ratings=[400,] normamps=205 emergamps=600
New "Line.l(r:p1udm3863-p1ulv4115)" units=km length=0.0162664 bus1=p1udm3863.1.2 bus2=p1ulv4115.1.2 Switch=False enabled=true phases=2 linecode=1p_ug_al_1/0_brenau_2 Seasons=1 Ratings=[400,] normamps=205 emergamps=600
New "Line.padswitch(r:p1udt886-p1udt891)p1u_9553" units=none length=0.001 bus1=p1udt886.1.2.3 bus2=p1udt886-p1udt891x.1.2.3 Switch=True enabled=true phases=3 linecode=padswitch_3_2 Seasons=1 Ratings=[400,] normamps=370 emergamps=600
New "Line.l(r:p1udt886-p1udt891)" units=km length=0.0184145 bus1=p1udt886-p1udt891x.1.2.3 bus2=p1udt886-p1udt891xx.1.2.3 Switch=False enabled=true phases=3 linecode=3p_ug_al_350kcmil_3 Seasons=1 Ratings=[400,] normamps=370 emergamps=600
New "Line.padswitch(r:p1udt886-p1udt891)p1u_9554" units=none length=0.001 bus1=p1udt886-p1udt891xx.1.2.3 bus2=p1udt891.1.2.3 Switch=True enabled=true phases=3 linecode=padswitch_3_2 Seasons=1 Ratings=[400,] normamps=370 emergamps=600
New "Line.l(r:p1udt891lv-p1ulv4129)" units=km length=0.0130114 bus1=p1udt891lv.1.2 bus2=p1ulv4129.1.2 Switch=False enabled=true phases=2 linecode=1p_ug_al_4/0_sweetbriar_2 Seasons=1 Ratings=[400,] normamps=301 emergamps=600
New "Line.padswitch(r:p1udt890-p1udt891)p1u_9551" units=none length=0.001 bus1=p1udt891.1.2.3 bus2=p1udt890-p1udt891xx.1.2.3 Switch=True enabled=true phases=3 linecode=padswitch_3_2 Seasons=1 Ratings=[400,] normamps=370 emergamps=600
New "Line.l(r:p1udt890-p1udt891)" units=km length=0.00921224 bus1=p1udt890-p1udt891xx.1.2.3 bus2=p1udt890-p1udt891x.1.2.3 Switch=False enabled=true phases=3 linecode=3p_ug_al_350kcmil_3 Seasons=1 Ratings=[400,] normamps=370 emergamps=600
New "Line.padswitch(r:p1udt890-p1udt891)p1u_9552" units=none length=0.001 bus1=p1udt890-p1udt891x.1.2.3 bus2=p1udt890.1.2.3 Switch=True enabled=true phases=3 linecode=padswitch_3_2 Seasons=1 Ratings=[400,] normamps=370 emergamps=600
New "Line.l(r:p1udt890lv-p1ulv4131)" units=km length=0.0128194 bus1=p1udt890lv.1.2 bus2=p1ulv4131.1.2 Switch=False enabled=true phases=2 linecode=1p_ug_al_4/0_sweetbriar_2 Seasons=1 Ratings=[400,] normamps=301 emergamps=600
New "Line.l(r:p1udt890lv-p1ulv7540)" units=km length=0.0164123 bus1=p1udt890lv.1.2 bus2=p1ulv7540.1.2 Switch=False enabled=true phases=2 linecode=1p_ug_al_1/0_brenau_2 Seasons=1 Ratings=[400,] normamps=205 emergamps=600
New "Line.l(r:p1udm3874-p1udt890lv)" units=km length=0.0184154 bus1=p1udt890lv.1.2 bus2=p1udm3874.1.2 Switch=False enabled=true phases=2 linecode=1p_ug_al_1/0_brenau_2 Seasons=1 Ratings=[400,] normamps=205 emergamps=600
New "Line.l(r:p1udm3874-p1ulv4128)" units=km length=0.0103747 bus1=p1udm3874.1.2 bus2=p1ulv4128.1.2 Switch=False enabled=true phases=2 linecode=1p_ug_al_1/0_brenau_2 Seasons=1 Ratings=[400,] normamps=205 emergamps=600
New "Line.l(r:p1udm3875-p1udt890lv)" units=km length=0.00921224 bus1=p1udt890lv.1.2 bus2=p1udm3875.1.2 Switch=False enabled=true phases=2 linecode=1p_ug_al_4/0_sweetbriar_2 Seasons=1 Ratings=[400,] normamps=301 emergamps=600
New "Line.l(r:p1udm3875-p1ulv4130)" units=km length=0.0126025 bus1=p1udm3875.1.2 bus2=p1ulv4130.1.2 Switch=False enabled=true phases=2 linecode=1p_ug_al_4/0_sweetbriar_2 Seasons=1 Ratings=[400,] normamps=301 emergamps=600
New "Line.l(r:p1udm3875-p1ulv7538)" units=km length=0.0163384 bus1=p1udm3875.1.2 bus2=p1ulv7538.1.2 Switch=False enabled=true phases=2 linecode=1p_ug_al_1/0_brenau_2 Seasons=1 Ratings=[400,] normamps=205 emergamps=600
New "Line.l(r:p1udm3875-p1ulv7539)" units=km length=0.0361776 bus1=p1udm3875.1.2 bus2=p1ulv7539.1.2 Switch=False enabled=true phases=2 linecode=1p_ug_al_1/0_brenau_2 Seasons=1 Ratings=[400,] normamps=205 emergamps=600
New "Line.padswitch(r:p1udt888-p1udt890)p1u_9549" units=none length=0.001 bus1=p1udt890.1.2.3 bus2=p1udt888-p1udt890xx.1.2.3 Switch=True enabled=true phases=3 linecode=padswitch_3_2 Seasons=1 Ratings=[400,] normamps=370 emergamps=600
New "Line.l(r:p1udt888-p1udt890)" units=km length=0.0460421 bus1=p1udt888-p1udt890xx.1.2.3 bus2=p1udt888-p1udt890x.1.2.3 Switch=False enabled=true phases=3 linecode=3p_ug_al_350kcmil_3 Seasons=1 Ratings=[400,] normamps=370 emergamps=600
New "Line.padswitch(r:p1udt888-p1udt890)p1u_9550" units=none length=0.001 bus1=p1udt888-p1udt890x.1.2.3 bus2=p1udt888.1.2.3 Switch=True enabled=true phases=3 linecode=padswitch_3_2 Seasons=1 Ratings=[400,] normamps=370 emergamps=600
New "Line.l(r:p1udm3868-p1udt888lv)" units=km length=0.00921224 bus1=p1udt888lv.1.2 bus2=p1udm3868.1.2 Switch=False enabled=true phases=2 linecode=1p_ug_al_1/0_brenau_2 Seasons=1 Ratings=[400,] normamps=205 emergamps=600
New "Line.l(r:p1udm3868-p1ulv4126)" units=km length=0.00960482 bus1=p1udm3868.1.2 bus2=p1ulv4126.1.2 Switch=False enabled=true phases=2 linecode=1p_ug_al_1/0_brenau_2 Seasons=1 Ratings=[400,] normamps=205 emergamps=600
New "Line.l(r:p1udm3869-p1udt888lv)" units=km length=0.00959425 bus1=p1udt888lv.1.2 bus2=p1udm3869.1.2 Switch=False enabled=true phases=2 linecode=1p_ug_al_1/0_brenau_2 Seasons=1 Ratings=[400,] normamps=205 emergamps=600
New "Line.l(r:p1udm3869-p1ulv4135)" units=km length=0.00843697 bus1=p1udm3869.1.2 bus2=p1ulv4135.1.2 Switch=False enabled=true phases=2 linecode=1p_ug_al_1/0_brenau_2 Seasons=1 Ratings=[400,] normamps=205 emergamps=600
New "Line.l(r:p1udm3870-p1udt888lv)" units=km length=0.00924504 bus1=p1udt888lv.1.2 bus2=p1udm3870.1.2 Switch=False enabled=true phases=2 linecode=1p_ug_al_1/0_brenau_2 Seasons=1 Ratings=[400,] normamps=205 emergamps=600
New "Line.l(r:p1udm3870-p1ulv7541)" units=km length=0.0105725 bus1=p1udm3870.1.2 bus2=p1ulv7541.1.2 Switch=False enabled=true phases=2 linecode=1p_ug_al_1/0_brenau_2 Seasons=1 Ratings=[400,] normamps=205 emergamps=600
New "Line.padswitch(r:p1udt885-p1udt888)p1u_9545" units=none length=0.001 bus1=p1udt888.1.2.3 bus2=p1udt885-p1udt888xx.1.2.3 Switch=True enabled=true phases=3 linecode=padswitch_3_2 Seasons=1 Ratings=[400,] normamps=370 emergamps=600
New "Line.l(r:p1udt885-p1udt888)" units=km length=0.0462359 bus1=p1udt885-p1udt888xx.1.2.3 bus2=p1udt885-p1udt888x.1.2.3 Switch=False enabled=true phases=3 linecode=3p_ug_al_350kcmil_3 Seasons=1 Ratings=[400,] normamps=370 emergamps=600
New "Line.padswitch(r:p1udt885-p1udt888)p1u_9546" units=none length=0.001 bus1=p1udt885-p1udt888x.1.2.3 bus2=p1udt885.1.2.3 Switch=True enabled=true phases=3 linecode=padswitch_3 Seasons=1 Ratings=[400,] normamps=295 emergamps=600
New "Line.l(r:p1udt885lv-p1ulv4114)" units=km length=0.0311923 bus1=p1udt885lv.1.2 bus2=p1ulv4114.1.2 Switch=False enabled=true phases=2 linecode=1p_ug_al_1/0_brenau_2 Seasons=1 Ratings=[400,] normamps=205 emergamps=600
New "Line.l(r:p1udt885lv-p1ulv4120)" units=km length=0.0107901 bus1=p1udt885lv.1.2 bus2=p1ulv4120.1.2 Switch=False enabled=true phases=2 linecode=1p_ug_al_1/0_brenau_2 Seasons=1 Ratings=[400,] normamps=205 emergamps=600
New "Line.l(r:p1udm3859-p1udt885lv)" units=km length=0.00924578 bus1=p1udt885lv.1.2 bus2=p1udm3859.1.2 Switch=False enabled=true phases=2 linecode=1p_ug_al_2/0_converse_2 Seasons=1 Ratings=[400,] normamps=233 emergamps=600
New "Line.l(r:p1udm3859-p1ulv4121)" units=km length=0.0105433 bus1=p1udm3859.1.2 bus2=p1ulv4121.1.2 Switch=False enabled=true phases=2 linecode=1p_ug_al_1/0_brenau_2 Seasons=1 Ratings=[400,] normamps=205 emergamps=600
New "Line.l(r:p1udm3859-p1udm3860)" units=km length=0.00925501 bus1=p1udm3859.1.2 bus2=p1udm3860.1.2 Switch=False enabled=true phases=2 linecode=1p_ug_al_1/0_brenau_2 Seasons=1 Ratings=[400,] normamps=205 emergamps=600
New "Line.l(r:p1udm3860-p1ulv4122)" units=km length=0.010563 bus1=p1udm3860.1.2 bus2=p1ulv4122.1.2 Switch=False enabled=true phases=2 linecode=1p_ug_al_1/0_brenau_2 Seasons=1 Ratings=[400,] normamps=205 emergamps=600
New "Line.l(r:p1udm3862-p1udt885lv)" units=km length=0.00924504 bus1=p1udt885lv.1.2 bus2=p1udm3862.1.2 Switch=False enabled=true phases=2 linecode=1p_ug_al_1/0_brenau_2 Seasons=1 Ratings=[400,] normamps=205 emergamps=600
New "Line.l(r:p1udm3862-p1ulv4125)" units=km length=0.0102519 bus1=p1udm3862.1.2 bus2=p1ulv4125.1.2 Switch=False enabled=true phases=2 linecode=1p_ug_al_1/0_brenau_2 Seasons=1 Ratings=[400,] normamps=205 emergamps=600
New "Line.l(r:p1udm3861-p1udm3862)" units=km length=0.00924504 bus1=p1udm3862.1.2 bus2=p1udm3861.1.2 Switch=False enabled=true phases=2 linecode=1p_ug_al_1/0_brenau_2 Seasons=1 Ratings=[400,] normamps=205 emergamps=600
New "Line.l(r:p1udm3861-p1ulv4124)" units=km length=0.0104387 bus1=p1udm3861.1.2 bus2=p1ulv4124.1.2 Switch=False enabled=true phases=2 linecode=1p_ug_al_1/0_brenau_2 Seasons=1 Ratings=[400,] normamps=205 emergamps=600
New "Line.padswitch(r:p1udt222-p1udt885)p1u_9411" units=none length=0.001 bus1=p1udt885.1.2.3 bus2=p1udt222-p1udt885xx.1.2.3 Switch=True enabled=true phases=3 linecode=padswitch_3_1 Seasons=1 Ratings=[400,] normamps=301 emergamps=600
New "Line.l(r:p1udt222-p1udt885)" units=km length=0.103842 bus1=p1udt222-p1udt885xx.1.2.3 bus2=p1udt222-p1udt885x.1.2.3 Switch=False enabled=true phases=3 linecode=3p_ug_al_3 Seasons=1 Ratings=[400,] normamps=295 emergamps=600
New "Line.padswitch(r:p1udt222-p1udt885)p1u_9412" units=none length=0.001 bus1=p1udt222-p1udt885x.1.2.3 bus2=p1udt222.1.2.3 Switch=True enabled=true phases=3 linecode=padswitch_3 Seasons=1 Ratings=[400,] normamps=295 emergamps=600
New "Line.l(r:p1udt222lv-p1ulv570)" units=km length=0.0140806 bus1=p1udt222lv.1.2 bus2=p1ulv570.1.2 Switch=False enabled=true phases=2 linecode=1p_ug_al_4/0_sweetbriar_2 Seasons=1 Ratings=[400,] normamps=301 emergamps=600
New "Line.padswitch(r:p1udt222-p1udt225)p1u_9409" units=none length=0.001 bus1=p1udt222.1.2.3 bus2=p1udt222-p1udt225x.1.2.3 Switch=True enabled=true phases=3 linecode=padswitch_3 Seasons=1 Ratings=[400,] normamps=295 emergamps=600
New "Line.l(r:p1udt222-p1udt225)" units=km length=0.0480006 bus1=p1udt222-p1udt225x.1.2.3 bus2=p1udt222-p1udt225xx.1.2.3 Switch=False enabled=true phases=3 linecode=3p_ug_al_3 Seasons=1 Ratings=[400,] normamps=295 emergamps=600
New "Line.padswitch(r:p1udt222-p1udt225)p1u_9410" units=none length=0.001 bus1=p1udt222-p1udt225xx.1.2.3 bus2=p1udt225.1.2.3 Switch=True enabled=true phases=3 linecode=padswitch_3 Seasons=1 Ratings=[400,] normamps=295 emergamps=600
New "Line.l(r:p1udt225lv-p1ulv575)" units=km length=0.0144733 bus1=p1udt225lv.1.2 bus2=p1ulv575.1.2 Switch=False enabled=true phases=2 linecode=1p_ug_al_4/0_sweetbriar_2 Seasons=1 Ratings=[400,] normamps=301 emergamps=600
New "Line.padswitch(r:p1udt225-p1udt434)p1u_9407" units=none length=0.001 bus1=p1udt225.1.2.3 bus2=p1udt225-p1udt434x.1.2.3 Switch=True enabled=true phases=3 linecode=padswitch_3 Seasons=1 Ratings=[400,] normamps=295 emergamps=600
New "Line.l(r:p1udt225-p1udt434)" units=km length=0.104413 bus1=p1udt225-p1udt434x.1.2.3 bus2=p1udt225-p1udt434xx.1.2.3 Switch=False enabled=true phases=3 linecode=3p_ug_al_3 Seasons=1 Ratings=[400,] normamps=295 emergamps=600
New "Line.padswitch(r:p1udt225-p1udt434)p1u_9408" units=none length=0.001 bus1=p1udt225-p1udt434xx.1.2.3 bus2=p1udt434.1.2.3 Switch=True enabled=true phases=3 linecode=padswitch_3 Seasons=1 Ratings=[400,] normamps=295 emergamps=600
New "Line.l(r:p1udt434lv-p1ulv1837)" units=km length=0.0132418 bus1=p1udt434lv.1.2 bus2=p1ulv1837.1.2 Switch=False enabled=true phases=2 linecode=1p_ug_al_4/0_sweetbriar_2 Seasons=1 Ratings=[400,] normamps=301 emergamps=600
New "Line.padswitch(r:p1udt196-p1udt434)p1u_9405" units=none length=0.001 bus1=p1udt434.1.2.3 bus2=p1udt196-p1udt434xx.1.2.3 Switch=True enabled=true phases=3 linecode=padswitch_3 Seasons=1 Ratings=[400,] normamps=295 emergamps=600
New "Line.l(r:p1udt196-p1udt434)" units=km length=0.0485025 bus1=p1udt196-p1udt434xx.1.2.3 bus2=p1udt196-p1udt434x.1.2.3 Switch=False enabled=true phases=3 linecode=3p_ug_al_3 Seasons=1 Ratings=[400,] normamps=295 emergamps=600
New "Line.padswitch(r:p1udt196-p1udt434)p1u_9406" units=none length=0.001 bus1=p1udt196-p1udt434x.1.2.3 bus2=p1udt196.1.2.3 Switch=True enabled=true phases=3 linecode=padswitch_3 Seasons=1 Ratings=[400,] normamps=295 emergamps=600
New "Line.l(r:p1udt196lv-p1ulv521)" units=km length=0.0131042 bus1=p1udt196lv.1.2 bus2=p1ulv521.1.2 Switch=False enabled=true phases=2 linecode=1p_ug_al_4/0_sweetbriar_2 Seasons=1 Ratings=[400,] normamps=301 emergamps=600
New "Line.padswitch(r:p1udt171-p1udt196)p1u_9403" units=none length=0.001 bus1=p1udt196.1.2.3 bus2=p1udt171-p1udt196xx.1.2.3 Switch=True enabled=true phases=3 linecode=padswitch_3 Seasons=1 Ratings=[400,] normamps=295 emergamps=600
New "Line.l(r:p1udt171-p1udt196)" units=km length=0.0388108 bus1=p1udt171-p1udt196xx.1.2.3 bus2=p1udt171-p1udt196x.1.2.3 Switch=False enabled=true phases=3 linecode=3p_ug_al_3 Seasons=1 Ratings=[400,] normamps=295 emergamps=600
New "Line.padswitch(r:p1udt171-p1udt196)p1u_9404" units=none length=0.001 bus1=p1udt171-p1udt196x.1.2.3 bus2=p1udt171.1.2.3 Switch=True enabled=true phases=3 linecode=padswitch_3 Seasons=1 Ratings=[400,] normamps=295 emergamps=600
New "Line.l(r:p1udt171lv-p1ulv489)" units=km length=0.0133035 bus1=p1udt171lv.1.2 bus2=p1ulv489.1.2 Switch=False enabled=true phases=2 linecode=1p_ug_al_4/0_sweetbriar_2 Seasons=1 Ratings=[400,] normamps=301 emergamps=600
New "Line.padswitch(r:p1udt171-p1udt177)p1u_9401" units=none length=0.001 bus1=p1udt171.1.2.3 bus2=p1udt171-p1udt177x.1.2.3 Switch=True enabled=true phases=3 linecode=padswitch_3 Seasons=1 Ratings=[400,] normamps=295 emergamps=600
New "Line.l(r:p1udt171-p1udt177)" units=km length=0.0382143 bus1=p1udt171-p1udt177x.1.2.3 bus2=p1udt171-p1udt177xx.1.2.3 Switch=False enabled=true phases=3 linecode=3p_ug_al_3 Seasons=1 Ratings=[400,] normamps=295 emergamps=600
New "Line.padswitch(r:p1udt171-p1udt177)p1u_9402" units=none length=0.001 bus1=p1udt171-p1udt177xx.1.2.3 bus2=p1udt177.1.2.3 Switch=True enabled=true phases=3 linecode=padswitch_3 Seasons=1 Ratings=[400,] normamps=295 emergamps=600
New "Line.l(r:p1udt177lv-p1ulv496)" units=km length=0.0151068 bus1=p1udt177lv.1.2 bus2=p1ulv496.1.2 Switch=False enabled=true phases=2 linecode=1p_ug_al_4/0_sweetbriar_2 Seasons=1 Ratings=[400,] normamps=301 emergamps=600
New "Line.padswitch(r:p1udt177-p1udt462)p1u_9399" units=none length=0.001 bus1=p1udt177.1.2.3 bus2=p1udt177-p1udt462x.1.2.3 Switch=True enabled=true phases=3 linecode=padswitch_3 Seasons=1 Ratings=[400,] normamps=295 emergamps=600
New "Line.l(r:p1udt177-p1udt462)" units=km length=0.0247516 bus1=p1udt177-p1udt462x.1.2.3 bus2=p1udt177-p1udt462xx.1.2.3 Switch=False enabled=true phases=3 linecode=3p_ug_al_3 Seasons=1 Ratings=[400,] normamps=295 emergamps=600
New "Line.padswitch(r:p1udt177-p1udt462)p1u_9400" units=none length=0.001 bus1=p1udt177-p1udt462xx.1.2.3 bus2=p1udt462.1.2.3 Switch=True enabled=true phases=3 linecode=padswitch_3 Seasons=1 Ratings=[400,] normamps=295 emergamps=600
New "Line.l(r:p1udt462lv-p1ulv1936)" units=km length=0.0148049 bus1=p1udt462lv.1.2 bus2=p1ulv1936.1.2 Switch=False enabled=true phases=2 linecode=1p_ug_al_4/0_sweetbriar_2 Seasons=1 Ratings=[400,] normamps=301 emergamps=600
New "Line.padswitch(r:p1udt207-p1udt462)p1u_9397" units=none length=0.001 bus1=p1udt462.1.2.3 bus2=p1udt207-p1udt462xx.1.2.3 Switch=True enabled=true phases=3 linecode=padswitch_3 Seasons=1 Ratings=[400,] normamps=295 emergamps=600
New "Line.l(r:p1udt207-p1udt462)" units=km length=0.114751 bus1=p1udt207-p1udt462xx.1.2.3 bus2=p1udt207-p1udt462x.1.2.3 Switch=False enabled=true phases=3 linecode=3p_ug_al_3 Seasons=1 Ratings=[400,] normamps=295 emergamps=600
New "Line.padswitch(r:p1udt207-p1udt462)p1u_9398" units=none length=0.001 bus1=p1udt207-p1udt462x.1.2.3 bus2=p1udt207.1.2.3 Switch=True enabled=true phases=3 linecode=padswitch_3 Seasons=1 Ratings=[400,] normamps=295 emergamps=600
New "Line.l(r:p1udt207lv-p1ulv542)" units=km length=0.00932655 bus1=p1udt207lv.1.2 bus2=p1ulv542.1.2 Switch=False enabled=true phases=2 linecode=1p_ug_al_4/0_sweetbriar_2 Seasons=1 Ratings=[400,] normamps=301 emergamps=600
New "Line.padswitch(r:p1udt207-p1udt251)p1u_9377" units=none length=0.001 bus1=p1udt207.1.2.3 bus2=p1udt207-p1udt251x.1.2.3 Switch=True enabled=true phases=3 linecode=padswitch_3 Seasons=1 Ratings=[400,] normamps=295 emergamps=600
New "Line.l(r:p1udt207-p1udt251)" units=km length=0.0807386 bus1=p1udt207-p1udt251x.1.2.3 bus2=p1udt207-p1udt251xx.1.2.3 Switch=False enabled=true phases=3 linecode=3p_ug_al_3 Seasons=1 Ratings=[400,] normamps=295 emergamps=600
New "Line.padswitch(r:p1udt207-p1udt251)p1u_9378" units=none length=0.001 bus1=p1udt207-p1udt251xx.1.2.3 bus2=p1udt251.1.2.3 Switch=True enabled=true phases=3 linecode=padswitch_3_8 Seasons=1 Ratings=[400,] normamps=285 emergamps=600
New "Line.l(r:p1udt251lv-p1ulv615)" units=km length=0.0139197 bus1=p1udt251lv.1.2 bus2=p1ulv615.1.2 Switch=False enabled=true phases=2 linecode=1p_ug_al_1/0_brenau_2 Seasons=1 Ratings=[400,] normamps=205 emergamps=600
New "Line.l(r:p1udt251lv-p1ulv1685)" units=km length=0.0115633 bus1=p1udt251lv.1.2 bus2=p1ulv1685.1.2 Switch=False enabled=true phases=2 linecode=1p_ug_al_1/0_brenau_2 Seasons=1 Ratings=[400,] normamps=205 emergamps=600
New "Line.l(r:p1udm949-p1udt251lv)" units=km length=0.00938331 bus1=p1udt251lv.1.2 bus2=p1udm949.1.2 Switch=False enabled=true phases=2 linecode=1p_ug_al_4/0_sweetbriar_2 Seasons=1 Ratings=[400,] normamps=301 emergamps=600
New "Line.l(r:p1udm949-p1ulv1684)" units=km length=0.0102798 bus1=p1udm949.1.2 bus2=p1ulv1684.1.2 Switch=False enabled=true phases=2 linecode=1p_ug_al_1/0_brenau_2 Seasons=1 Ratings=[400,] normamps=205 emergamps=600
New "Line.l(r:p1udm948-p1udm949)" units=km length=0.00938416 bus1=p1udm949.1.2 bus2=p1udm948.1.2 Switch=False enabled=true phases=2 linecode=1p_ug_al_4/0_sweetbriar_2 Seasons=1 Ratings=[400,] normamps=301 emergamps=600
New "Line.l(r:p1udm948-p1ulv618)" units=km length=0.0139093 bus1=p1udm948.1.2 bus2=p1ulv618.1.2 Switch=False enabled=true phases=2 linecode=1p_ug_al_1/0_brenau_2 Seasons=1 Ratings=[400,] normamps=205 emergamps=600
New "Line.l(r:p1udm948-p1ulv1693)" units=km length=0.00995894 bus1=p1udm948.1.2 bus2=p1ulv1693.1.2 Switch=False enabled=true phases=2 linecode=1p_ug_al_1/0_brenau_2 Seasons=1 Ratings=[400,] normamps=205 emergamps=600
New "Line.l(r:p1udm951-p1udt251lv)" units=km length=0.00939413 bus1=p1udt251lv.1.2 bus2=p1udm951.1.2 Switch=False enabled=true phases=2 linecode=1p_ug_al_1/0_brenau_2 Seasons=1 Ratings=[400,] normamps=205 emergamps=600
New "Line.l(r:p1udm951-p1ulv1686)" units=km length=0.0128498 bus1=p1udm951.1.2 bus2=p1ulv1686.1.2 Switch=False enabled=true phases=2 linecode=1p_ug_al_1/0_brenau_2 Seasons=1 Ratings=[400,] normamps=205 emergamps=600
New "Line.l(r:p1udm951-p1udm952)" units=km length=0.00938416 bus1=p1udm951.1.2 bus2=p1udm952.1.2 Switch=False enabled=true phases=2 linecode=1p_ug_al_1/0_brenau_2 Seasons=1 Ratings=[400,] normamps=205 emergamps=600
New "Line.l(r:p1udm952-p1ulv1687)" units=km length=0.0109136 bus1=p1udm952.1.2 bus2=p1ulv1687.1.2 Switch=False enabled=true phases=2 linecode=1p_ug_al_1/0_brenau_2 Seasons=1 Ratings=[400,] normamps=205 emergamps=600
New "Line.l(r:p1udm952-p1ulv1905)" units=km length=0.036903 bus1=p1udm952.1.2 bus2=p1ulv1905.1.2 Switch=False enabled=true phases=2 linecode=1p_ug_al_1/0_brenau_2 Seasons=1 Ratings=[400,] normamps=205 emergamps=600
New "Line.padswitch(r:p1udt251-p1udt252)p1u_9375" units=none length=0.001 bus1=p1udt251.1.2.3 bus2=p1udt251-p1udt252x.1.2.3 Switch=True enabled=true phases=3 linecode=padswitch_3_9 Seasons=1 Ratings=[400,] normamps=205 emergamps=600
New "Line.l(r:p1udt251-p1udt252)" units=km length=0.0281508 bus1=p1udt251-p1udt252x.1.2.3 bus2=p1udt251-p1udt252xx.1.2.3 Switch=False enabled=true phases=3 linecode=3p_ug_al_3 Seasons=1 Ratings=[400,] normamps=295 emergamps=600
New "Line.padswitch(r:p1udt251-p1udt252)p1u_9376" units=none length=0.001 bus1=p1udt251-p1udt252xx.1.2.3 bus2=p1udt252.1.2.3 Switch=True enabled=true phases=3 linecode=padswitch_3_8 Seasons=1 Ratings=[400,] normamps=285 emergamps=600
New "Line.l(r:p1udt252lv-p1ulv619)" units=km length=0.0156679 bus1=p1udt252lv.1.2 bus2=p1ulv619.1.2 Switch=False enabled=true phases=2 linecode=1p_ug_al_1/0_brenau_2 Seasons=1 Ratings=[400,] normamps=205 emergamps=600
New "Line.l(r:p1udt252lv-p1ulv1691)" units=km length=0.0097713 bus1=p1udt252lv.1.2 bus2=p1ulv1691.1.2 Switch=False enabled=true phases=2 linecode=1p_ug_al_1/0_brenau_2 Seasons=1 Ratings=[400,] normamps=205 emergamps=600
New "Line.l(r:p1udm955-p1udt252lv)" units=km length=0.0187675 bus1=p1udt252lv.1.2 bus2=p1udm955.1.2 Switch=False enabled=true phases=2 linecode=1p_ug_al_4/0_sweetbriar_2 Seasons=1 Ratings=[400,] normamps=301 emergamps=600
New "Line.l(r:p1udm955-p1ulv616)" units=km length=0.013801 bus1=p1udm955.1.2 bus2=p1ulv616.1.2 Switch=False enabled=true phases=2 linecode=1p_ug_al_4/0_sweetbriar_2 Seasons=1 Ratings=[400,] normamps=301 emergamps=600
New "Line.l(r:p1udm957-p1udt252lv)" units=km length=0.00938416 bus1=p1udt252lv.1.2 bus2=p1udm957.1.2 Switch=False enabled=true phases=2 linecode=1p_ug_al_1/0_brenau_2 Seasons=1 Ratings=[400,] normamps=205 emergamps=600
New "Line.l(r:p1udm957-p1ulv1690)" units=km length=0.00994635 bus1=p1udm957.1.2 bus2=p1ulv1690.1.2 Switch=False enabled=true phases=2 linecode=1p_ug_al_1/0_brenau_2 Seasons=1 Ratings=[400,] normamps=205 emergamps=600
New "Line.padswitch(r:p1udt252-p1udt253)p1u_9373" units=none length=0.001 bus1=p1udt252.1.2.3 bus2=p1udt252-p1udt253x.1.2.3 Switch=True enabled=true phases=3 linecode=padswitch_3_8 Seasons=1 Ratings=[400,] normamps=285 emergamps=600
New "Line.l(r:p1udt252-p1udt253)" units=km length=0.00938416 bus1=p1udt252-p1udt253x.1.2.3 bus2=p1udt252-p1udt253xx.1.2.3 Switch=False enabled=true phases=3 linecode=3p_ug_al_3 Seasons=1 Ratings=[400,] normamps=295 emergamps=600
New "Line.padswitch(r:p1udt252-p1udt253)p1u_9374" units=none length=0.001 bus1=p1udt252-p1udt253xx.1.2.3 bus2=p1udt253.1.2.3 Switch=True enabled=true phases=3 linecode=padswitch_3 Seasons=1 Ratings=[400,] normamps=295 emergamps=600
New "Line.l(r:p1udt253lv-p1ulv620)" units=km length=0.0138088 bus1=p1udt253lv.1.2 bus2=p1ulv620.1.2 Switch=False enabled=true phases=2 linecode=1p_ug_al_4/0_sweetbriar_2 Seasons=1 Ratings=[400,] normamps=301 emergamps=600
New "Line.padswitch(r:p1udt253-p1udt256)p1u_9371" units=none length=0.001 bus1=p1udt253.1.2.3 bus2=p1udt253-p1udt256x.1.2.3 Switch=True enabled=true phases=3 linecode=padswitch_3 Seasons=1 Ratings=[400,] normamps=295 emergamps=600
New "Line.l(r:p1udt253-p1udt256)" units=km length=0.02861 bus1=p1udt253-p1udt256x.1.2.3 bus2=p1udt253-p1udt256xx.1.2.3 Switch=False enabled=true phases=3 linecode=3p_ug_al_3 Seasons=1 Ratings=[400,] normamps=295 emergamps=600
New "Line.padswitch(r:p1udt253-p1udt256)p1u_9372" units=none length=0.001 bus1=p1udt253-p1udt256xx.1.2.3 bus2=p1udt256.1.2.3 Switch=True enabled=true phases=3 linecode=padswitch_3 Seasons=1 Ratings=[400,] normamps=295 emergamps=600
New "Line.l(r:p1udt256lv-p1ulv635)" units=km length=0.0129328 bus1=p1udt256lv.1.2 bus2=p1ulv635.1.2 Switch=False enabled=true phases=2 linecode=1p_ug_al_1/0_brenau_2 Seasons=1 Ratings=[400,] normamps=205 emergamps=600
New "Line.l(r:p1udm967-p1udt256lv)" units=km length=0.00984338 bus1=p1udt256lv.1.2 bus2=p1udm967.1.2 Switch=False enabled=true phases=2 linecode=1p_ug_al_1/0_brenau_2 Seasons=1 Ratings=[400,] normamps=205 emergamps=600
New "Line.l(r:p1udm967-p1ulv633)" units=km length=0.0128788 bus1=p1udm967.1.2 bus2=p1ulv633.1.2 Switch=False enabled=true phases=2 linecode=1p_ug_al_1/0_brenau_2 Seasons=1 Ratings=[400,] normamps=205 emergamps=600
New "Line.l(r:p1udm969-p1udt256lv)" units=km length=0.0193671 bus1=p1udt256lv.1.2 bus2=p1udm969.1.2 Switch=False enabled=true phases=2 linecode=1p_ug_al_4/0_sweetbriar_2 Seasons=1 Ratings=[400,] normamps=301 emergamps=600
New "Line.l(r:p1udm969-p1ulv1689)" units=km length=0.00513595 bus1=p1udm969.1.2 bus2=p1ulv1689.1.2 Switch=False enabled=true phases=2 linecode=1p_ug_al_1/0_brenau_2 Seasons=1 Ratings=[400,] normamps=205 emergamps=600
New "Line.l(r:p1udm969-p1ulv1712)" units=km length=0.00974062 bus1=p1udm969.1.2 bus2=p1ulv1712.1.2 Switch=False enabled=true phases=2 linecode=1p_ug_al_1/0_brenau_2 Seasons=1 Ratings=[400,] normamps=205 emergamps=600
New "Line.padswitch(r:p1udt237-p1udt256)p1u_9369" units=none length=0.001 bus1=p1udt256.1.2.3 bus2=p1udt237-p1udt256xx.1.2.3 Switch=True enabled=true phases=3 linecode=padswitch_3 Seasons=1 Ratings=[400,] normamps=295 emergamps=600
New "Line.l(r:p1udt237-p1udt256)" units=km length=0.0295094 bus1=p1udt237-p1udt256xx.1.2.3 bus2=p1udt237-p1udt256x.1.2.3 Switch=False enabled=true phases=3 linecode=3p_ug_al_3 Seasons=1 Ratings=[400,] normamps=295 emergamps=600
New "Line.padswitch(r:p1udt237-p1udt256)p1u_9370" units=none length=0.001 bus1=p1udt237-p1udt256x.1.2.3 bus2=p1udt237.1.2.3 Switch=True enabled=true phases=3 linecode=padswitch_3_9 Seasons=1 Ratings=[400,] normamps=205 emergamps=600
New "Line.l(r:p1udt237lv-p1ulv591)" units=km length=0.0294361 bus1=p1udt237lv.1.2 bus2=p1ulv591.1.2 Switch=False enabled=true phases=2 linecode=1p_ug_al_1/0_brenau_2 Seasons=1 Ratings=[400,] normamps=205 emergamps=600
New "Line.l(r:p1udt237lv-p1ulv638)" units=km length=0.0141243 bus1=p1udt237lv.1.2 bus2=p1ulv638.1.2 Switch=False enabled=true phases=2 linecode=1p_ug_al_1/0_brenau_2 Seasons=1 Ratings=[400,] normamps=205 emergamps=600
New "Line.l(r:p1udm861-p1udt237lv)" units=km length=0.00984257 bus1=p1udt237lv.1.2 bus2=p1udm861.1.2 Switch=False enabled=true phases=2 linecode=1p_ug_al_4/0_sweetbriar_2 Seasons=1 Ratings=[400,] normamps=301 emergamps=600
New "Line.l(r:p1udm861-p1ulv630)" units=km length=0.0127123 bus1=p1udm861.1.2 bus2=p1ulv630.1.2 Switch=False enabled=true phases=2 linecode=1p_ug_al_1/0_brenau_2 Seasons=1 Ratings=[400,] normamps=205 emergamps=600
New "Line.l(r:p1udm861-p1ulv1720)" units=km length=0.0131339 bus1=p1udm861.1.2 bus2=p1ulv1720.1.2 Switch=False enabled=true phases=2 linecode=1p_ug_al_1/0_brenau_2 Seasons=1 Ratings=[400,] normamps=205 emergamps=600
New "Line.l(r:p1udm861-p1ulv1907)" units=km length=0.0329987 bus1=p1udm861.1.2 bus2=p1ulv1907.1.2 Switch=False enabled=true phases=2 linecode=1p_ug_al_1/0_brenau_2 Seasons=1 Ratings=[400,] normamps=205 emergamps=600
New "Line.l(r:p1udm861-p1ulv1921)" units=km length=0.0245403 bus1=p1udm861.1.2 bus2=p1ulv1921.1.2 Switch=False enabled=true phases=2 linecode=1p_ug_al_1/0_brenau_2 Seasons=1 Ratings=[400,] normamps=205 emergamps=600
New "Line.l(r:p1udm860-p1udm861)" units=km length=0.00983342 bus1=p1udm861.1.2 bus2=p1udm860.1.2 Switch=False enabled=true phases=2 linecode=1p_ug_al_1/0_brenau_2 Seasons=1 Ratings=[400,] normamps=205 emergamps=600
New "Line.l(r:p1udm860-p1ulv629)" units=km length=0.0129409 bus1=p1udm860.1.2 bus2=p1ulv629.1.2 Switch=False enabled=true phases=2 linecode=1p_ug_al_1/0_brenau_2 Seasons=1 Ratings=[400,] normamps=205 emergamps=600
New "Line.l(r:p1udm860-p1ulv1719)" units=km length=0.0132358 bus1=p1udm860.1.2 bus2=p1ulv1719.1.2 Switch=False enabled=true phases=2 linecode=1p_ug_al_1/0_brenau_2 Seasons=1 Ratings=[400,] normamps=205 emergamps=600
New "Line.l(r:p1udm862-p1udt237lv)" units=km length=0.00983342 bus1=p1udt237lv.1.2 bus2=p1udm862.1.2 Switch=False enabled=true phases=2 linecode=1p_ug_al_1/0_brenau_2 Seasons=1 Ratings=[400,] normamps=205 emergamps=600
New "Line.l(r:p1udm862-p1ulv632)" units=km length=0.0144604 bus1=p1udm862.1.2 bus2=p1ulv632.1.2 Switch=False enabled=true phases=2 linecode=1p_ug_al_1/0_brenau_2 Seasons=1 Ratings=[400,] normamps=205 emergamps=600
New "Line.l(r:p1udm862-p1udm863)" units=km length=0.0295086 bus1=p1udm862.1.2 bus2=p1udm863.1.2 Switch=False enabled=true phases=2 linecode=1p_ug_al_1/0_brenau_2 Seasons=1 Ratings=[400,] normamps=205 emergamps=600
New "Line.l(r:p1udm863-p1ulv636)" units=km length=0.0153759 bus1=p1udm863.1.2 bus2=p1ulv636.1.2 Switch=False enabled=true phases=2 linecode=1p_ug_al_1/0_brenau_2 Seasons=1 Ratings=[400,] normamps=205 emergamps=600
New "Line.padswitch(r:p1udt237-p1udt255)p1u_9367" units=none length=0.001 bus1=p1udt237.1.2.3 bus2=p1udt237-p1udt255x.1.2.3 Switch=True enabled=true phases=3 linecode=padswitch_3_9 Seasons=1 Ratings=[400,] normamps=205 emergamps=600
New "Line.l(r:p1udt237-p1udt255)" units=km length=0.039352 bus1=p1udt237-p1udt255x.1.2.3 bus2=p1udt237-p1udt255xx.1.2.3 Switch=False enabled=true phases=3 linecode=3p_ug_al_3 Seasons=1 Ratings=[400,] normamps=295 emergamps=600
New "Line.padswitch(r:p1udt237-p1udt255)p1u_9368" units=none length=0.001 bus1=p1udt237-p1udt255xx.1.2.3 bus2=p1udt255.1.2.3 Switch=True enabled=true phases=3 linecode=padswitch_3 Seasons=1 Ratings=[400,] normamps=295 emergamps=600
New "Line.l(r:p1udt255lv-p1ulv626)" units=km length=0.0170352 bus1=p1udt255lv.1.2 bus2=p1ulv626.1.2 Switch=False enabled=true phases=2 linecode=1p_ug_al_1/0_brenau_2 Seasons=1 Ratings=[400,] normamps=205 emergamps=600
New "Line.l(r:p1udt255lv-p1ulv627)" units=km length=0.0123138 bus1=p1udt255lv.1.2 bus2=p1ulv627.1.2 Switch=False enabled=true phases=2 linecode=1p_ug_al_1/0_brenau_2 Seasons=1 Ratings=[400,] normamps=205 emergamps=600
New "Line.l(r:p1udt255lv-p1ulv1717)" units=km length=0.0121357 bus1=p1udt255lv.1.2 bus2=p1ulv1717.1.2 Switch=False enabled=true phases=2 linecode=1p_ug_al_1/0_brenau_2 Seasons=1 Ratings=[400,] normamps=205 emergamps=600
New "Line.l(r:p1udm963-p1udt255lv)" units=km length=0.00984338 bus1=p1udt255lv.1.2 bus2=p1udm963.1.2 Switch=False enabled=true phases=2 linecode=1p_ug_al_1/0_brenau_2 Seasons=1 Ratings=[400,] normamps=205 emergamps=600
New "Line.l(r:p1udm963-p1ulv628)" units=km length=0.0171773 bus1=p1udm963.1.2 bus2=p1ulv628.1.2 Switch=False enabled=true phases=2 linecode=1p_ug_al_1/0_brenau_2 Seasons=1 Ratings=[400,] normamps=205 emergamps=600
New "Line.l(r:p1udm963-p1ulv1718)" units=km length=0.0125224 bus1=p1udm963.1.2 bus2=p1ulv1718.1.2 Switch=False enabled=true phases=2 linecode=1p_ug_al_1/0_brenau_2 Seasons=1 Ratings=[400,] normamps=205 emergamps=600
New "Line.l(r:p1udm964-p1udt255lv)" units=km length=0.0098326 bus1=p1udt255lv.1.2 bus2=p1udm964.1.2 Switch=False enabled=true phases=2 linecode=1p_ug_al_1/0_brenau_2 Seasons=1 Ratings=[400,] normamps=205 emergamps=600
New "Line.l(r:p1udm964-p1ulv631)" units=km length=0.0171061 bus1=p1udm964.1.2 bus2=p1ulv631.1.2 Switch=False enabled=true phases=2 linecode=1p_ug_al_1/0_brenau_2 Seasons=1 Ratings=[400,] normamps=205 emergamps=600
New "Line.padswitch(r:p1udt255-p1udt420)p1u_9365" units=none length=0.001 bus1=p1udt255.1.2.3 bus2=p1udt255-p1udt420x.1.2.3 Switch=True enabled=true phases=3 linecode=padswitch_3 Seasons=1 Ratings=[400,] normamps=295 emergamps=600
New "Line.l(r:p1udt255-p1udt420)" units=km length=0.0295086 bus1=p1udt255-p1udt420x.1.2.3 bus2=p1udt255-p1udt420xx.1.2.3 Switch=False enabled=true phases=3 linecode=3p_ug_al_3 Seasons=1 Ratings=[400,] normamps=295 emergamps=600
New "Line.padswitch(r:p1udt255-p1udt420)p1u_9366" units=none length=0.001 bus1=p1udt255-p1udt420xx.1.2.3 bus2=p1udt420.1.2.3 Switch=True enabled=true phases=3 linecode=padswitch_3 Seasons=1 Ratings=[400,] normamps=295 emergamps=600
New "Line.l(r:p1udt420lv-p1ulv1713)" units=km length=0.0112499 bus1=p1udt420lv.1.2 bus2=p1ulv1713.1.2 Switch=False enabled=true phases=2 linecode=1p_ug_al_1/0_brenau_2 Seasons=1 Ratings=[400,] normamps=205 emergamps=600
New "Line.l(r:p1udm1626-p1udt420lv)" units=km length=0.0098326 bus1=p1udt420lv.1.2 bus2=p1udm1626.1.2 Switch=False enabled=true phases=2 linecode=1p_ug_al_2/0_converse_2 Seasons=1 Ratings=[400,] normamps=233 emergamps=600
New "Line.l(r:p1udm1626-p1ulv1714)" units=km length=0.0115676 bus1=p1udm1626.1.2 bus2=p1ulv1714.1.2 Switch=False enabled=true phases=2 linecode=1p_ug_al_1/0_brenau_2 Seasons=1 Ratings=[400,] normamps=205 emergamps=600
New "Line.l(r:p1udm1626-p1udm1627)" units=km length=0.00984338 bus1=p1udm1626.1.2 bus2=p1udm1627.1.2 Switch=False enabled=true phases=2 linecode=1p_ug_al_1/0_brenau_2 Seasons=1 Ratings=[400,] normamps=205 emergamps=600
New "Line.l(r:p1udm1627-p1ulv1715)" units=km length=0.0121243 bus1=p1udm1627.1.2 bus2=p1ulv1715.1.2 Switch=False enabled=true phases=2 linecode=1p_ug_al_1/0_brenau_2 Seasons=1 Ratings=[400,] normamps=205 emergamps=600
New "Line.l(r:p1udm1628-p1udt420lv)" units=km length=0.0098326 bus1=p1udt420lv.1.2 bus2=p1udm1628.1.2 Switch=False enabled=true phases=2 linecode=1p_ug_al_4/0_sweetbriar_2 Seasons=1 Ratings=[400,] normamps=301 emergamps=600
New "Line.l(r:p1udm1628-p1ulv1721)" units=km length=0.0110847 bus1=p1udm1628.1.2 bus2=p1ulv1721.1.2 Switch=False enabled=true phases=2 linecode=1p_ug_al_2/0_converse_2 Seasons=1 Ratings=[400,] normamps=233 emergamps=600
New "Line.l(r:p1udm1628-p1ulv1835)" units=km length=0.0357381 bus1=p1udm1628.1.2 bus2=p1ulv1835.1.2 Switch=False enabled=true phases=2 linecode=1p_ug_al_1/0_brenau_2 Seasons=1 Ratings=[400,] normamps=205 emergamps=600
New "Line.l(r:p1udm1628-p1udm1629)" units=km length=0.00984338 bus1=p1udm1628.1.2 bus2=p1udm1629.1.2 Switch=False enabled=true phases=2 linecode=1p_ug_al_1/0_brenau_2 Seasons=1 Ratings=[400,] normamps=205 emergamps=600
New "Line.l(r:p1udm1629-p1ulv1726)" units=km length=0.0210004 bus1=p1udm1629.1.2 bus2=p1ulv1726.1.2 Switch=False enabled=true phases=2 linecode=1p_ug_al_1/0_brenau_2 Seasons=1 Ratings=[400,] normamps=205 emergamps=600
New "Line.padswitch(r:p1udt16-p1udt420)p1u_9209" units=none length=0.001 bus1=p1udt420.1.2.3 bus2=p1udt16-p1udt420xx.1.2.3 Switch=True enabled=true phases=3 linecode=padswitch_3 Seasons=1 Ratings=[400,] normamps=295 emergamps=600
New "Line.l(r:p1udt16-p1udt420)" units=km length=0.0888122 bus1=p1udt16-p1udt420xx.1.2.3 bus2=p1udt16-p1udt420x.1.2.3 Switch=False enabled=true phases=3 linecode=3p_ug_al_3 Seasons=1 Ratings=[400,] normamps=295 emergamps=600
New "Line.padswitch(r:p1udt16-p1udt420)p1u_9210" units=none length=0.001 bus1=p1udt16-p1udt420x.1.2.3 bus2=p1udt16.1.2.3 Switch=True enabled=true phases=3 linecode=padswitch_3 Seasons=1 Ratings=[400,] normamps=295 emergamps=600
New "Line.l(r:p1udm90-p1udt16lv)" units=km length=0.0173507 bus1=p1udt16lv.1.2 bus2=p1udm90.1.2 Switch=False enabled=true phases=2 linecode=1p_ug_al_4/0_sweetbriar_2 Seasons=1 Ratings=[400,] normamps=301 emergamps=600
New "Line.l(r:p1udm90-p1ulv17)" units=km length=0.0099267 bus1=p1udm90.1.2 bus2=p1ulv17.1.2 Switch=False enabled=true phases=2 linecode=1p_ug_al_1/0_brenau_2 Seasons=1 Ratings=[400,] normamps=205 emergamps=600
New "Line.l(r:p1udm90-p1ulv1848)" units=km length=0.0114296 bus1=p1udm90.1.2 bus2=p1ulv1848.1.2 Switch=False enabled=true phases=2 linecode=1p_ug_al_1/0_brenau_2 Seasons=1 Ratings=[400,] normamps=205 emergamps=600
New "Line.l(r:p1udm90-p1ulv1946)" units=km length=0.00626547 bus1=p1udm90.1.2 bus2=p1ulv1946.1.2 Switch=False enabled=true phases=2 linecode=1p_ug_al_1/0_brenau_2 Seasons=1 Ratings=[400,] normamps=205 emergamps=600
New "Line.l(r:p1udm91-p1udt16lv)" units=km length=0.00867991 bus1=p1udt16lv.1.2 bus2=p1udm91.1.2 Switch=False enabled=true phases=2 linecode=1p_ug_al_4/0_sweetbriar_2 Seasons=1 Ratings=[400,] normamps=301 emergamps=600
New "Line.l(r:p1udm91-p1ulv1723)" units=km length=0.00743544 bus1=p1udm91.1.2 bus2=p1ulv1723.1.2 Switch=False enabled=true phases=2 linecode=1p_ug_al_1/0_brenau_2 Seasons=1 Ratings=[400,] normamps=205 emergamps=600
New "Line.l(r:p1udm91-p1ulv1951)" units=km length=0.0112549 bus1=p1udm91.1.2 bus2=p1ulv1951.1.2 Switch=False enabled=true phases=2 linecode=1p_ug_al_1/0_brenau_2 Seasons=1 Ratings=[400,] normamps=205 emergamps=600
New "Line.l(r:p1udm91-p1udm92)" units=km length=0.0407803 bus1=p1udm91.1.2 bus2=p1udm92.1.2 Switch=False enabled=true phases=2 linecode=1p_ug_al_1/0_brenau_2 Seasons=1 Ratings=[400,] normamps=205 emergamps=600
New "Line.l(r:p1udm92-p1ulv1724)" units=km length=0.0110336 bus1=p1udm92.1.2 bus2=p1ulv1724.1.2 Switch=False enabled=true phases=2 linecode=1p_ug_al_1/0_brenau_2 Seasons=1 Ratings=[400,] normamps=205 emergamps=600
New "Line.l(r:p1udm92-p1udm93)" units=km length=0.00984338 bus1=p1udm92.1.2 bus2=p1udm93.1.2 Switch=False enabled=true phases=2 linecode=1p_ug_al_1/0_brenau_2 Seasons=1 Ratings=[400,] normamps=205 emergamps=600
New "Line.l(r:p1udm93-p1ulv1725)" units=km length=0.0111693 bus1=p1udm93.1.2 bus2=p1ulv1725.1.2 Switch=False enabled=true phases=2 linecode=1p_ug_al_1/0_brenau_2 Seasons=1 Ratings=[400,] normamps=205 emergamps=600
New "Line.padswitch(r:p1udt16-p1udt172)p1u_9207" units=none length=0.001 bus1=p1udt16.1.2.3 bus2=p1udt16-p1udt172x.1.2.3 Switch=True enabled=true phases=3 linecode=padswitch_3 Seasons=1 Ratings=[400,] normamps=295 emergamps=600
New "Line.l(r:p1udt16-p1udt172)" units=km length=0.0839665 bus1=p1udt16-p1udt172x.1.2.3 bus2=p1udt16-p1udt172xx.1.2.3 Switch=False enabled=true phases=3 linecode=3p_ug_al_3 Seasons=1 Ratings=[400,] normamps=295 emergamps=600
New "Line.padswitch(r:p1udt16-p1udt172)p1u_9208" units=none length=0.001 bus1=p1udt16-p1udt172xx.1.2.3 bus2=p1udt172.1.2.3 Switch=True enabled=true phases=3 linecode=padswitch_3 Seasons=1 Ratings=[400,] normamps=295 emergamps=600
New "Line.l(r:p1udt172lv-p1ulv553)" units=km length=0.0107895 bus1=p1udt172lv.1.2 bus2=p1ulv553.1.2 Switch=False enabled=true phases=2 linecode=1p_ug_al_1/0_brenau_2 Seasons=1 Ratings=[400,] normamps=205 emergamps=600
New "Line.l(r:p1udt172lv-p1ulv1131)" units=km length=0.0161219 bus1=p1udt172lv.1.2 bus2=p1ulv1131.1.2 Switch=False enabled=true phases=2 linecode=1p_ug_al_1/0_brenau_2 Seasons=1 Ratings=[400,] normamps=205 emergamps=600
New "Line.l(r:p1udm628-p1udt172lv)" units=km length=0.00984505 bus1=p1udt172lv.1.2 bus2=p1udm628.1.2 Switch=False enabled=true phases=2 linecode=1p_ug_al_4/0_sweetbriar_2 Seasons=1 Ratings=[400,] normamps=301 emergamps=600
New "Line.l(r:p1udm628-p1ulv1109)" units=km length=0.0136648 bus1=p1udm628.1.2 bus2=p1ulv1109.1.2 Switch=False enabled=true phases=2 linecode=1p_ug_al_1/0_brenau_2 Seasons=1 Ratings=[400,] normamps=205 emergamps=600
New "Line.l(r:p1udm628-p1ulv1130)" units=km length=0.0158306 bus1=p1udm628.1.2 bus2=p1ulv1130.1.2 Switch=False enabled=true phases=2 linecode=1p_ug_al_1/0_brenau_2 Seasons=1 Ratings=[400,] normamps=205 emergamps=600
New "Line.l(r:p1udm627-p1udm628)" units=km length=0.01971 bus1=p1udm628.1.2 bus2=p1udm627.1.2 Switch=False enabled=true phases=2 linecode=1p_ug_al_1/0_brenau_2 Seasons=1 Ratings=[400,] normamps=205 emergamps=600
New "Line.l(r:p1udm627-p1ulv1107)" units=km length=0.0143679 bus1=p1udm627.1.2 bus2=p1ulv1107.1.2 Switch=False enabled=true phases=2 linecode=1p_ug_al_1/0_brenau_2 Seasons=1 Ratings=[400,] normamps=205 emergamps=600
New "Line.l(r:p1udm627-p1ulv1127)" units=km length=0.0134273 bus1=p1udm627.1.2 bus2=p1ulv1127.1.2 Switch=False enabled=true phases=2 linecode=1p_ug_al_1/0_brenau_2 Seasons=1 Ratings=[400,] normamps=205 emergamps=600
New "Line.l(r:p1udm632-p1udt172lv)" units=km length=0.00985501 bus1=p1udt172lv.1.2 bus2=p1udm632.1.2 Switch=False enabled=true phases=2 linecode=1p_ug_al_4/0_sweetbriar_2 Seasons=1 Ratings=[400,] normamps=301 emergamps=600
New "Line.l(r:p1udm632-p1ulv1132)" units=km length=0.0172624 bus1=p1udm632.1.2 bus2=p1ulv1132.1.2 Switch=False enabled=true phases=2 linecode=1p_ug_al_1/0_brenau_2 Seasons=1 Ratings=[400,] normamps=205 emergamps=600
New "Line.l(r:p1udm632-p1ulv1828)" units=km length=0.0108296 bus1=p1udm632.1.2 bus2=p1ulv1828.1.2 Switch=False enabled=true phases=2 linecode=1p_ug_al_1/0_brenau_2 Seasons=1 Ratings=[400,] normamps=205 emergamps=600
New "Line.l(r:p1udm625-p1udm632)" units=km length=0.00985501 bus1=p1udm632.1.2 bus2=p1udm625.1.2 Switch=False enabled=true phases=2 linecode=1p_ug_al_1/0_brenau_2 Seasons=1 Ratings=[400,] normamps=205 emergamps=600
New "Line.l(r:p1udm625-p1ulv537)" units=km length=0.011882 bus1=p1udm625.1.2 bus2=p1ulv537.1.2 Switch=False enabled=true phases=2 linecode=1p_ug_al_1/0_brenau_2 Seasons=1 Ratings=[400,] normamps=205 emergamps=600
New "Line.l(r:p1udm624-p1udm625)" units=km length=0.00984505 bus1=p1udm625.1.2 bus2=p1udm624.1.2 Switch=False enabled=true phases=2 linecode=1p_ug_al_1/0_brenau_2 Seasons=1 Ratings=[400,] normamps=205 emergamps=600
New "Line.l(r:p1udm624-p1ulv490)" units=km length=0.0101454 bus1=p1udm624.1.2 bus2=p1ulv490.1.2 Switch=False enabled=true phases=2 linecode=1p_ug_al_1/0_brenau_2 Seasons=1 Ratings=[400,] normamps=205 emergamps=600
New "Line.padswitch(r:p1udt172-p1udt233)p1u_9205" units=none length=0.001 bus1=p1udt172.1.2.3 bus2=p1udt172-p1udt233x.1.2.3 Switch=True enabled=true phases=3 linecode=padswitch_3 Seasons=1 Ratings=[400,] normamps=295 emergamps=600
New "Line.l(r:p1udt172-p1udt233)" units=km length=0.0295551 bus1=p1udt172-p1udt233x.1.2.3 bus2=p1udt172-p1udt233xx.1.2.3 Switch=False enabled=true phases=3 linecode=3p_ug_al_3 Seasons=1 Ratings=[400,] normamps=295 emergamps=600
New "Line.padswitch(r:p1udt172-p1udt233)p1u_9206" units=none length=0.001 bus1=p1udt172-p1udt233xx.1.2.3 bus2=p1udt233.1.2.3 Switch=True enabled=true phases=3 linecode=padswitch_3 Seasons=1 Ratings=[400,] normamps=295 emergamps=600
New "Line.l(r:p1udt233lv-p1ulv586)" units=km length=0.0348827 bus1=p1udt233lv.1.2 bus2=p1ulv586.1.2 Switch=False enabled=true phases=2 linecode=1p_ug_al_1/0_brenau_2 Seasons=1 Ratings=[400,] normamps=205 emergamps=600
New "Line.l(r:p1udm841-p1udt233lv)" units=km length=0.00984505 bus1=p1udt233lv.1.2 bus2=p1udm841.1.2 Switch=False enabled=true phases=2 linecode=1p_ug_al_4/0_sweetbriar_2 Seasons=1 Ratings=[400,] normamps=301 emergamps=600
New "Line.l(r:p1udm841-p1ulv1105)" units=km length=0.0116576 bus1=p1udm841.1.2 bus2=p1ulv1105.1.2 Switch=False enabled=true phases=2 linecode=1p_ug_al_4/0_sweetbriar_2 Seasons=1 Ratings=[400,] normamps=301 emergamps=600
New "Line.l(r:p1udm841-p1ulv1126)" units=km length=0.0127385 bus1=p1udm841.1.2 bus2=p1ulv1126.1.2 Switch=False enabled=true phases=2 linecode=1p_ug_al_1/0_brenau_2 Seasons=1 Ratings=[400,] normamps=205 emergamps=600
...
New "Fuse.fuse_fuse(r:p1udt429-p1udt449)p1u_12004" MonitoredObj=Line.fuse(r:p1udt429-p1udt449)p1u_12004 enabled=true RatedCurrent=165.0
New "Line.l(r:p1udt429-p1udt449)" units=km length=0.001 bus1=p1udt429-p1udt449x.1 bus2=p1udt449.1 Switch=False enabled=true phases=1 linecode=1p_oh_al_acsr_#2_sparrow_1 Seasons=1 Ratings=[400,] normamps=165 emergamps=600
New "Line.l(r:p1udt449lv-p1ulv1890)" units=km length=0.00623773 bus1=p1udt449lv.1.2 bus2=p1ulv1890.1.2 Switch=False enabled=true phases=2 linecode=1p_oh_al_2/0_rucina_2 Seasons=1 Ratings=[400,] normamps=115 emergamps=600
New "Line.fuse(r:p1udt289-p1udt370)p1u_11991" units=km length=0.001 bus1=p1udt289.3 bus2=p1udt289-p1udt370x.3 Switch=False enabled=true phases=1 linecode=fuse_1 Seasons=1 Ratings=[400,] normamps=325 emergamps=600
New "Fuse.fuse_fuse(r:p1udt289-p1udt370)p1u_11991" MonitoredObj=Line.fuse(r:p1udt289-p1udt370)p1u_11991 enabled=true RatedCurrent=151.0
New "Line.padswitch(r:p1udt289-p1udt370)p1u_9187" units=none length=0.001 bus1=p1udt289-p1udt370x.3 bus2=p1udt289-p1udt370xx.3 Switch=True enabled=true phases=1 linecode=padswitch_1 Seasons=1 Ratings=[400,] normamps=151 emergamps=600
New "Line.l(r:p1udt289-p1udt370)" units=km length=0.001 bus1=p1udt289-p1udt370xx.3 bus2=p1udt289-p1udt370xxx.3 Switch=False enabled=true phases=1 linecode=1p_ug_al_1 Seasons=1 Ratings=[400,] normamps=151 emergamps=600
New "Line.padswitch(r:p1udt289-p1udt370)p1u_9188" units=none length=0.001 bus1=p1udt289-p1udt370xxx.3 bus2=p1udt370.3 Switch=True enabled=true phases=1 linecode=padswitch_1 Seasons=1 Ratings=[400,] normamps=151 emergamps=600
New "Line.l(r:p1udt370lv-p1ulv1468)" units=km length=0.0132207 bus1=p1udt370lv.1.2 bus2=p1ulv1468.1.2 Switch=False enabled=true phases=2 linecode=1p_ug_al_1/0_brenau_2 Seasons=1 Ratings=[400,] normamps=205 emergamps=600
New "Line.padswitch(r:p1udt308-p1udt455)p1u_9193" units=none length=0.001 bus1=p1udt308.1.2.3 bus2=p1udt308-p1udt455x.1.2.3 Switch=True enabled=true phases=3 linecode=padswitch_3 Seasons=1 Ratings=[400,] normamps=295 emergamps=600
New "Line.l(r:p1udt308-p1udt455)" units=km length=0.0567289 bus1=p1udt308-p1udt455x.1.2.3 bus2=p1udt308-p1udt455xx.1.2.3 Switch=False enabled=true phases=3 linecode=3p_ug_al_3 Seasons=1 Ratings=[400,] normamps=295 emergamps=600
New "Line.padswitch(r:p1udt308-p1udt455)p1u_9194" units=none length=0.001 bus1=p1udt308-p1udt455xx.1.2.3 bus2=p1udt455.1.2.3 Switch=True enabled=true phases=3 linecode=padswitch_3_2 Seasons=1 Ratings=[400,] normamps=370 emergamps=600
New "Line.l(r:p1udt455lv-p1ulv1914)" units=km length=0.0111344 bus1=p1udt455lv.1.2.3 bus2=p1ulv1914.1.2.3 Switch=False enabled=true phases=3 linecode=3p_ug_al_350kcmil_3_2 Seasons=1 Ratings=[400,] normamps=370 emergamps=600
New "Line.padswitch(r:p1udt338-p1udt420)p1u_9363" units=none length=0.001 bus1=p1udt420.1.2.3 bus2=p1udt338-p1udt420xx.1.2.3 Switch=True enabled=true phases=3 linecode=padswitch_3 Seasons=1 Ratings=[400,] normamps=295 emergamps=600
New "Line.l(r:p1udt338-p1udt420)" units=km length=0.0921141 bus1=p1udt338-p1udt420xx.1.2.3 bus2=p1udt338-p1udt420x.1.2.3 Switch=False enabled=true phases=3 linecode=3p_ug_al_3 Seasons=1 Ratings=[400,] normamps=295 emergamps=600
New "Line.padswitch(r:p1udt338-p1udt420)p1u_9364" units=none length=0.001 bus1=p1udt338-p1udt420x.1.2.3 bus2=p1udt338.1.2.3 Switch=True enabled=true phases=3 linecode=padswitch_3_9 Seasons=1 Ratings=[400,] normamps=205 emergamps=600
New "Line.l(r:p1udt338lv-p1ulv1134)" units=km length=0.0130554 bus1=p1udt338lv.1.2 bus2=p1ulv1134.1.2 Switch=False enabled=true phases=2 linecode=1p_ug_al_4/0_sweetbriar_2 Seasons=1 Ratings=[400,] normamps=301 emergamps=600
New "Line.padswitch(r:p1udt224-p1udt338)p1u_9361" units=none length=0.001 bus1=p1udt338.1.2.3 bus2=p1udt224-p1udt338xx.1.2.3 Switch=True enabled=true phases=3 linecode=padswitch_3_9 Seasons=1 Ratings=[400,] normamps=205 emergamps=600
New "Line.l(r:p1udt224-p1udt338)" units=km length=0.0285095 bus1=p1udt224-p1udt338xx.1.2.3 bus2=p1udt224-p1udt338x.1.2.3 Switch=False enabled=true phases=3 linecode=3p_ug_al_3 Seasons=1 Ratings=[400,] normamps=295 emergamps=600
New "Line.padswitch(r:p1udt224-p1udt338)p1u_9362" units=none length=0.001 bus1=p1udt224-p1udt338x.1.2.3 bus2=p1udt224.1.2.3 Switch=True enabled=true phases=3 linecode=padswitch_3 Seasons=1 Ratings=[400,] normamps=295 emergamps=600
New "Line.l(r:p1udt224lv-p1ulv574)" units=km length=0.0119463 bus1=p1udt224lv.1.2 bus2=p1ulv574.1.2 Switch=False enabled=true phases=2 linecode=1p_ug_al_1/0_brenau_2 Seasons=1 Ratings=[400,] normamps=205 emergamps=600
New "Line.l(r:p1udm816-p1udt224lv)" units=km length=0.0461234 bus1=p1udt224lv.1.2 bus2=p1udm816.1.2 Switch=False enabled=true phases=2 linecode=1p_ug_al_4/0_sweetbriar_2 Seasons=1 Ratings=[400,] normamps=301 emergamps=600
New "Line.l(r:p1udm816-p1ulv1862)" units=km length=0.01242 bus1=p1udm816.1.2 bus2=p1ulv1862.1.2 Switch=False enabled=true phases=2 linecode=1p_ug_al_4/0_sweetbriar_2 Seasons=1 Ratings=[400,] normamps=301 emergamps=600
New "Line.padswitch(r:p1udt15-p1udt224)p1u_9345" units=none length=0.001 bus1=p1udt224.1.2.3 bus2=p1udt15-p1udt224xx.1.2.3 Switch=True enabled=true phases=3 linecode=padswitch_3 Seasons=1 Ratings=[400,] normamps=295 emergamps=600
New "Line.l(r:p1udt15-p1udt224)" units=km length=0.0729882 bus1=p1udt15-p1udt224xx.1.2.3 bus2=p1udt15-p1udt224x.1.2.3 Switch=False enabled=true phases=3 linecode=3p_ug_al_3 Seasons=1 Ratings=[400,] normamps=295 emergamps=600
New "Line.padswitch(r:p1udt15-p1udt224)p1u_9346" units=none length=0.001 bus1=p1udt15-p1udt224x.1.2.3 bus2=p1udt15.1.2.3 Switch=True enabled=true phases=3 linecode=padswitch_3 Seasons=1 Ratings=[400,] normamps=295 emergamps=600
New "Line.l(r:p1udt15lv-p1ulv1135)" units=km length=0.00984737 bus1=p1udt15lv.1.2 bus2=p1ulv1135.1.2 Switch=False enabled=true phases=2 linecode=1p_ug_al_1/0_brenau_2 Seasons=1 Ratings=[400,] normamps=205 emergamps=600
New "Line.l(r:p1udm81-p1udt15lv)" units=km length=0.00992646 bus1=p1udt15lv.1.2 bus2=p1udm81.1.2 Switch=False enabled=true phases=2 linecode=1p_ug_al_4/0_sweetbriar_2 Seasons=1 Ratings=[400,] normamps=301 emergamps=600
New "Line.l(r:p1udm81-p1ulv1136)" units=km length=0.00905437 bus1=p1udm81.1.2 bus2=p1ulv1136.1.2 Switch=False enabled=true phases=2 linecode=1p_ug_al_1/0_brenau_2 Seasons=1 Ratings=[400,] normamps=205 emergamps=600
New "Line.l(r:p1udm81-p1ulv1137)" units=km length=0.0166857 bus1=p1udm81.1.2 bus2=p1ulv1137.1.2 Switch=False enabled=true phases=2 linecode=1p_ug_al_1/0_brenau_2 Seasons=1 Ratings=[400,] normamps=205 emergamps=600
New "Line.l(r:p1udm81-p1udm89)" units=km length=0.0068117 bus1=p1udm81.1.2 bus2=p1udm89.1.2 Switch=False enabled=true phases=2 linecode=1p_ug_al_4/0_sweetbriar_2 Seasons=1 Ratings=[400,] normamps=301 emergamps=600
New "Line.l(r:p1udm89-p1ulv1198)" units=km length=0.0086093 bus1=p1udm89.1.2 bus2=p1ulv1198.1.2 Switch=False enabled=true phases=2 linecode=1p_ug_al_1/0_brenau_2 Seasons=1 Ratings=[400,] normamps=205 emergamps=600
New "Line.l(r:p1udm83-p1udm89)" units=km length=0.00910475 bus1=p1udm89.1.2 bus2=p1udm83.1.2 Switch=False enabled=true phases=2 linecode=1p_ug_al_1/0_brenau_2 Seasons=1 Ratings=[400,] normamps=205 emergamps=600
New "Line.l(r:p1udm83-p1ulv1138)" units=km length=0.0119624 bus1=p1udm83.1.2 bus2=p1ulv1138.1.2 Switch=False enabled=true phases=2 linecode=1p_ug_al_1/0_brenau_2 Seasons=1 Ratings=[400,] normamps=205 emergamps=600
New "Line.l(r:p1udm88-p1udm89)" units=km length=0.00910475 bus1=p1udm89.1.2 bus2=p1udm88.1.2 Switch=False enabled=true phases=2 linecode=1p_ug_al_4/0_sweetbriar_2 Seasons=1 Ratings=[400,] normamps=301 emergamps=600
New "Line.l(r:p1udm88-p1ulv1197)" units=km length=0.00999182 bus1=p1udm88.1.2 bus2=p1ulv1197.1.2 Switch=False enabled=true phases=2 linecode=1p_ug_al_1/0_brenau_2 Seasons=1 Ratings=[400,] normamps=205 emergamps=600
New "Line.l(r:p1udm87-p1udm88)" units=km length=0.00607668 bus1=p1udm88.1.2 bus2=p1udm87.1.2 Switch=False enabled=true phases=2 linecode=1p_ug_al_4/0_sweetbriar_2 Seasons=1 Ratings=[400,] normamps=301 emergamps=600
New "Line.l(r:p1udm87-p1ulv1196)" units=km length=0.0123117 bus1=p1udm87.1.2 bus2=p1ulv1196.1.2 Switch=False enabled=true phases=2 linecode=1p_ug_al_1/0_brenau_2 Seasons=1 Ratings=[400,] normamps=205 emergamps=600
New "Line.l(r:p1udm86-p1udm87)" units=km length=0.0124415 bus1=p1udm87.1.2 bus2=p1udm86.1.2 Switch=False enabled=true phases=2 linecode=1p_ug_al_2/0_converse_2 Seasons=1 Ratings=[400,] normamps=233 emergamps=600
New "Line.l(r:p1udm86-p1ulv1195)" units=km length=0.00879423 bus1=p1udm86.1.2 bus2=p1ulv1195.1.2 Switch=False enabled=true phases=2 linecode=1p_ug_al_1/0_brenau_2 Seasons=1 Ratings=[400,] normamps=205 emergamps=600
New "Line.l(r:p1udm85-p1udm86)" units=km length=0.00637227 bus1=p1udm86.1.2 bus2=p1udm85.1.2 Switch=False enabled=true phases=2 linecode=1p_ug_al_1/0_brenau_2 Seasons=1 Ratings=[400,] normamps=205 emergamps=600
New "Line.l(r:p1udm85-p1ulv1189)" units=km length=0.00960692 bus1=p1udm85.1.2 bus2=p1ulv1189.1.2 Switch=False enabled=true phases=2 linecode=1p_ug_al_1/0_brenau_2 Seasons=1 Ratings=[400,] normamps=205 emergamps=600
New "Line.l(r:p1udm84-p1udt15lv)" units=km length=0.00993557 bus1=p1udt15lv.1.2 bus2=p1udm84.1.2 Switch=False enabled=true phases=2 linecode=1p_ug_al_1/0_brenau_2 Seasons=1 Ratings=[400,] normamps=205 emergamps=600
New "Line.l(r:p1udm84-p1ulv1140)" units=km length=0.0203995 bus1=p1udm84.1.2 bus2=p1ulv1140.1.2 Switch=False enabled=true phases=2 linecode=1p_ug_al_1/0_brenau_2 Seasons=1 Ratings=[400,] normamps=205 emergamps=600
New "Line.l(r:p1udm79-p1udm84)" units=km length=0.00993642 bus1=p1udm84.1.2 bus2=p1udm79.1.2 Switch=False enabled=true phases=2 linecode=1p_ug_al_1/0_brenau_2 Seasons=1 Ratings=[400,] normamps=205 emergamps=600
New "Line.l(r:p1udm79-p1ulv16)" units=km length=0.00925019 bus1=p1udm79.1.2 bus2=p1ulv16.1.2 Switch=False enabled=true phases=2 linecode=1p_ug_al_1/0_brenau_2 Seasons=1 Ratings=[400,] normamps=205 emergamps=600
New "Line.padswitch(r:p1udt15-p1udt345)p1u_9343" units=none length=0.001 bus1=p1udt15.1.2.3 bus2=p1udt15-p1udt345x.1.2.3 Switch=True enabled=true phases=3 linecode=padswitch_3 Seasons=1 Ratings=[400,] normamps=295 emergamps=600
New "Line.l(r:p1udt15-p1udt345)" units=km length=0.0634383 bus1=p1udt15-p1udt345x.1.2.3 bus2=p1udt15-p1udt345xx.1.2.3 Switch=False enabled=true phases=3 linecode=3p_ug_al_3 Seasons=1 Ratings=[400,] normamps=295 emergamps=600
New "Line.padswitch(r:p1udt15-p1udt345)p1u_9344" units=none length=0.001 bus1=p1udt15-p1udt345xx.1.2.3 bus2=p1udt345.1.2.3 Switch=True enabled=true phases=3 linecode=padswitch_3 Seasons=1 Ratings=[400,] normamps=295 emergamps=600
New "Line.l(r:p1udt345lv-p1ulv1186)" units=km length=0.009636 bus1=p1udt345lv.1.2 bus2=p1ulv1186.1.2 Switch=False enabled=true phases=2 linecode=1p_ug_al_1/0_brenau_2 Seasons=1 Ratings=[400,] normamps=205 emergamps=600
New "Line.l(r:p1udm1359-p1udt345lv)" units=km length=0.00944649 bus1=p1udt345lv.1.2 bus2=p1udm1359.1.2 Switch=False enabled=true phases=2 linecode=1p_ug_al_4/0_sweetbriar_2 Seasons=1 Ratings=[400,] normamps=301 emergamps=600
New "Line.l(r:p1udm1359-p1ulv1187)" units=km length=0.00953079 bus1=p1udm1359.1.2 bus2=p1ulv1187.1.2 Switch=False enabled=true phases=2 linecode=1p_ug_al_4/0_sweetbriar_2 Seasons=1 Ratings=[400,] normamps=301 emergamps=600
New "Line.l(r:p1udm1359-p1ulv1194)" units=km length=0.00726592 bus1=p1udm1359.1.2 bus2=p1ulv1194.1.2 Switch=False enabled=true phases=2 linecode=1p_ug_al_2/0_converse_2 Seasons=1 Ratings=[400,] normamps=233 emergamps=600
New "Line.l(r:p1udm1361-p1udt345lv)" units=km length=0.018893 bus1=p1udt345lv.1.2 bus2=p1udm1361.1.2 Switch=False enabled=true phases=2 linecode=1p_ug_al_1/0_brenau_2 Seasons=1 Ratings=[400,] normamps=205 emergamps=600
New "Line.l(r:p1udm1361-p1ulv1207)" units=km length=0.0066017 bus1=p1udm1361.1.2 bus2=p1ulv1207.1.2 Switch=False enabled=true phases=2 linecode=1p_ug_al_1/0_brenau_2 Seasons=1 Ratings=[400,] normamps=205 emergamps=600
New "Line.padswitch(r:p1udt344-p1udt345)p1u_9341" units=none length=0.001 bus1=p1udt345.1.2.3 bus2=p1udt344-p1udt345xx.1.2.3 Switch=True enabled=true phases=3 linecode=padswitch_3 Seasons=1 Ratings=[400,] normamps=295 emergamps=600
New "Line.l(r:p1udt344-p1udt345)" units=km length=0.0670833 bus1=p1udt344-p1udt345xx.1.2.3 bus2=p1udt344-p1udt345x.1.2.3 Switch=False enabled=true phases=3 linecode=3p_ug_al_3 Seasons=1 Ratings=[400,] normamps=295 emergamps=600
New "Line.padswitch(r:p1udt344-p1udt345)p1u_9342" units=none length=0.001 bus1=p1udt344-p1udt345x.1.2.3 bus2=p1udt344.1.2.3 Switch=True enabled=true phases=3 linecode=padswitch_3 Seasons=1 Ratings=[400,] normamps=295 emergamps=600
New "Line.l(r:p1udt344lv-p1ulv1185)" units=km length=0.0105464 bus1=p1udt344lv.1.2.3 bus2=p1ulv1185.1.2.3 Switch=False enabled=true phases=3 linecode=3p_ug_al_350kcmil_3_2 Seasons=1 Ratings=[400,] normamps=370 emergamps=600
New "Line.padswitch(r:p1udt343-p1udt344)p1u_9263" units=none length=0.001 bus1=p1udt344.1.2.3 bus2=p1udt343-p1udt344xx.1.2.3 Switch=True enabled=true phases=3 linecode=padswitch_3 Seasons=1 Ratings=[400,] normamps=295 emergamps=600
New "Line.l(r:p1udt343-p1udt344)" units=km length=0.0198509 bus1=p1udt343-p1udt344xx.1.2.3 bus2=p1udt343-p1udt344x.1.2.3 Switch=False enabled=true phases=3 linecode=3p_ug_al_3 Seasons=1 Ratings=[400,] normamps=295 emergamps=600
New "Line.padswitch(r:p1udt343-p1udt344)p1u_9264" units=none length=0.001 bus1=p1udt343-p1udt344x.1.2.3 bus2=p1udt343.1.2.3 Switch=True enabled=true phases=3 linecode=padswitch_3 Seasons=1 Ratings=[400,] normamps=295 emergamps=600
New "Line.l(r:p1udt343lv-p1ulv1184)" units=km length=0.0110609 bus1=p1udt343lv.1.2 bus2=p1ulv1184.1.2 Switch=False enabled=true phases=2 linecode=1p_ug_al_1/0_brenau_2 Seasons=1 Ratings=[400,] normamps=205 emergamps=600
New "Line.l(r:p1udt343lv-p1ulv1210)" units=km length=0.012613 bus1=p1udt343lv.1.2 bus2=p1ulv1210.1.2 Switch=False enabled=true phases=2 linecode=1p_ug_al_1/0_brenau_2 Seasons=1 Ratings=[400,] normamps=205 emergamps=600
New "Line.l(r:p1udm1353-p1udt343lv)" units=km length=0.00992996 bus1=p1udt343lv.1.2 bus2=p1udm1353.1.2 Switch=False enabled=true phases=2 linecode=1p_ug_al_1/0_brenau_2 Seasons=1 Ratings=[400,] normamps=205 emergamps=600
New "Line.l(r:p1udm1353-p1ulv1183)" units=km length=0.013825 bus1=p1udm1353.1.2 bus2=p1ulv1183.1.2 Switch=False enabled=true phases=2 linecode=1p_ug_al_1/0_brenau_2 Seasons=1 Ratings=[400,] normamps=205 emergamps=600
New "Line.l(r:p1udm1353-p1ulv1209)" units=km length=0.0119922 bus1=p1udm1353.1.2 bus2=p1ulv1209.1.2 Switch=False enabled=true phases=2 linecode=1p_ug_al_1/0_brenau_2 Seasons=1 Ratings=[400,] normamps=205 emergamps=600
New "Line.padswitch(r:p1udt229-p1udt343)p1u_9261" units=none length=0.001 bus1=p1udt343.1.2.3 bus2=p1udt229-p1udt343xx.1.2.3 Switch=True enabled=true phases=3 linecode=padswitch_3 Seasons=1 Ratings=[400,] normamps=295 emergamps=600
New "Line.l(r:p1udt229-p1udt343)" units=km length=0.0397117 bus1=p1udt229-p1udt343xx.1.2.3 bus2=p1udt229-p1udt343x.1.2.3 Switch=False enabled=true phases=3 linecode=3p_ug_al_3 Seasons=1 Ratings=[400,] normamps=295 emergamps=600
...