demos/models/sfo_p1udt1469/Loads.dss
New "Load.load_p1ulv7623" conn=wye bus1=p1ulv7623.1.2.3 kV=0.48 Vminpu=0.8 Vmaxpu=1.2 model=1 kW=61.9233885544209 kvar=4.31057990031613 phases=3
New "Load.load_p1ulv4190_1" conn=wye bus1=p1ulv4190.1 kV=0.12 Vminpu=0.8 Vmaxpu=1.2 model=1 kW=2.88868187793291 kvar=0.884043107847399 phases=1
New "Load.load_p1ulv4190_2" conn=wye bus1=p1ulv4190.2 kV=0.12 Vminpu=0.8 Vmaxpu=1.2 model=1 kW=2.88868187793291 kvar=0.884043107847399 phases=1
New "Load.load_p1ulv4191" conn=wye bus1=p1ulv4191.1.2.3 kV=0.48 Vminpu=0.8 Vmaxpu=1.2 model=1 kW=24.002686299 kvar=1.3563011417279 phases=3
New "Load.load_p1ulv4192" conn=wye bus1=p1ulv4191.1.2.3 kV=0.48 Vminpu=0.8 Vmaxpu=1.2 model=1 kW=11.5619678640485 kvar=1.85562881958179 phases=3
New "Load.load_p1ulv4116_1" conn=wye bus1=p1ulv4116.1 kV=0.12 Vminpu=0.8 Vmaxpu=1.2 model=1 kW=2.34096080548376 kvar=0.251482151177159 phases=1
New "Load.load_p1ulv4116_2" conn=wye bus1=p1ulv4116.2 kV=0.12 Vminpu=0.8 Vmaxpu=1.2 model=1 kW=2.34096080548376 kvar=0.251482151177159 phases=1
New "Load.load_p1ulv4117_1" conn=wye bus1=p1ulv4116.1 kV=0.12 Vminpu=0.8 Vmaxpu=1.2 model=1 kW=0.927631458143747 kvar=0.0341388092859772 phases=1
New "Load.load_p1ulv4117_2" conn=wye bus1=p1ulv4116.2 kV=0.12 Vminpu=0.8 Vmaxpu=1.2 model=1 kW=0.927631458143747 kvar=0.0341388092859772 phases=1
New "Load.load_p1ulv4115_1" conn=wye bus1=p1ulv4115.1 kV=0.12 Vminpu=0.8 Vmaxpu=1.2 model=1 kW=2.56395363977188 kvar=0.461574728236954 phases=1
New "Load.load_p1ulv4115_2" conn=wye bus1=p1ulv4115.2 kV=0.12 Vminpu=0.8 Vmaxpu=1.2 model=1 kW=2.56395363977188 kvar=0.461574728236954 phases=1
New "Load.load_p1ulv4129_1" conn=wye bus1=p1ulv4129.1 kV=0.12 Vminpu=0.8 Vmaxpu=1.2 model=1 kW=4.0421380834441 kvar=0.739886793308732 phases=1
New "Load.load_p1ulv4129_2" conn=wye bus1=p1ulv4129.2 kV=0.12 Vminpu=0.8 Vmaxpu=1.2 model=1 kW=4.0421380834441 kvar=0.739886793308732 phases=1
New "Load.load_p1ulv4131_1" conn=wye bus1=p1ulv4131.1 kV=0.12 Vminpu=0.8 Vmaxpu=1.2 model=1 kW=7.14058486087855 kvar=0.101511978828737 phases=1
New "Load.load_p1ulv4131_2" conn=wye bus1=p1ulv4131.2 kV=0.12 Vminpu=0.8 Vmaxpu=1.2 model=1 kW=7.14058486087855 kvar=0.101511978828737 phases=1
New "Load.load_p1ulv7540_1" conn=wye bus1=p1ulv7540.1 kV=0.12 Vminpu=0.8 Vmaxpu=1.2 model=1 kW=0.646596957922762 kvar=0.396352497206508 phases=1
New "Load.load_p1ulv7540_2" conn=wye bus1=p1ulv7540.2 kV=0.12 Vminpu=0.8 Vmaxpu=1.2 model=1 kW=0.646596957922762 kvar=0.396352497206508 phases=1
New "Load.load_p1ulv4128_1" conn=wye bus1=p1ulv4128.1 kV=0.12 Vminpu=0.8 Vmaxpu=1.2 model=1 kW=1.92103925177175 kvar=0.644404219592232 phases=1
New "Load.load_p1ulv4128_2" conn=wye bus1=p1ulv4128.2 kV=0.12 Vminpu=0.8 Vmaxpu=1.2 model=1 kW=1.92103925177175 kvar=0.644404219592232 phases=1
New "Load.load_p1ulv4130_1" conn=wye bus1=p1ulv4130.1 kV=0.12 Vminpu=0.8 Vmaxpu=1.2 model=1 kW=4.25332881017093 kvar=1.61808536839508 phases=1
New "Load.load_p1ulv4130_2" conn=wye bus1=p1ulv4130.2 kV=0.12 Vminpu=0.8 Vmaxpu=1.2 model=1 kW=4.25332881017093 kvar=1.61808536839508 phases=1
New "Load.load_p1ulv7538_1" conn=wye bus1=p1ulv7538.1 kV=0.12 Vminpu=0.8 Vmaxpu=1.2 model=1 kW=0.963830131827628 kvar=0.0544583687810137 phases=1
New "Load.load_p1ulv7538_2" conn=wye bus1=p1ulv7538.2 kV=0.12 Vminpu=0.8 Vmaxpu=1.2 model=1 kW=0.963830131827628 kvar=0.0544583687810137 phases=1
New "Load.load_p1ulv7539_1" conn=wye bus1=p1ulv7539.1 kV=0.12 Vminpu=0.8 Vmaxpu=1.2 model=1 kW=1.12587114521893 kvar=0.0479359395078092 phases=1
New "Load.load_p1ulv7539_2" conn=wye bus1=p1ulv7539.2 kV=0.12 Vminpu=0.8 Vmaxpu=1.2 model=1 kW=1.12587114521893 kvar=0.0479359395078092 phases=1
New "Load.load_p1ulv4126_1" conn=wye bus1=p1ulv4126.1 kV=0.12 Vminpu=0.8 Vmaxpu=1.2 model=1 kW=3.06372790364399 kvar=0.558891669857919 phases=1
New "Load.load_p1ulv4126_2" conn=wye bus1=p1ulv4126.2 kV=0.12 Vminpu=0.8 Vmaxpu=1.2 model=1 kW=3.06372790364399 kvar=0.558891669857919 phases=1
New "Load.load_p1ulv4135_1" conn=wye bus1=p1ulv4135.1 kV=0.12 Vminpu=0.8 Vmaxpu=1.2 model=1 kW=2.34375412178375 kvar=0.112486513528013 phases=1
New "Load.load_p1ulv4135_2" conn=wye bus1=p1ulv4135.2 kV=0.12 Vminpu=0.8 Vmaxpu=1.2 model=1 kW=2.34375412178375 kvar=0.112486513528013 phases=1
New "Load.load_p1ulv7541_1" conn=wye bus1=p1ulv7541.1 kV=0.12 Vminpu=0.8 Vmaxpu=1.2 model=1 kW=1.11956989732821 kvar=0.496782171136758 phases=1
New "Load.load_p1ulv7541_2" conn=wye bus1=p1ulv7541.2 kV=0.12 Vminpu=0.8 Vmaxpu=1.2 model=1 kW=1.11956989732821 kvar=0.496782171136758 phases=1
New "Load.load_p1ulv4114_1" conn=wye bus1=p1ulv4114.1 kV=0.12 Vminpu=0.8 Vmaxpu=1.2 model=1 kW=0.720509087536812 kvar=0.218118719751883 phases=1
New "Load.load_p1ulv4114_2" conn=wye bus1=p1ulv4114.2 kV=0.12 Vminpu=0.8 Vmaxpu=1.2 model=1 kW=0.720509087536812 kvar=0.218118719751883 phases=1
New "Load.load_p1ulv4120_1" conn=wye bus1=p1ulv4120.1 kV=0.12 Vminpu=0.8 Vmaxpu=1.2 model=1 kW=1.27025228037509 kvar=0.0546428083534645 phases=1
...